*** Created by ADS, Keysight ***
*** HSPICE netlist file for tabular W-element data ***

.subckt ckt_m4lines_ADS_W in1 in2 in3 in4 inref out1 out2 out3 out4 outref Length=1
W1 in1 in2 in3 in4 inref out1 out2 out3 out4 outref N=4 L=Length TABLEMODEL=m4lines_ADS_W
.model m4lines_ADS_W w modeltype=table n=4
+ lmodel=lmod_m4lines_ADS_W cmodel=cmod_m4lines_ADS_W
+ rmodel=rmod_m4lines_ADS_W gmodel=gmod_m4lines_ADS_W

.model lmod_m4lines_ADS_W sp n=4 valtype=real
+ interpolation=spline
+ extrapolation=step
+ spacing=nonuniform
+ dc=
+ 4.12794306737e-07  
+ 1.52367114e-07  4.09320510335e-07  
+ 4.85327901752e-08  9.53873553683e-08  4.09320510335e-07  
+ 2.78652167525e-08  4.85327901752e-08  1.52367114e-07  4.12794306737e-07  
+ infinity=
+ 4.12794306737e-07  
+ 1.52367114e-07  4.09320510335e-07  
+ 4.85327901752e-08  9.53873553683e-08  4.09320510335e-07  
+ 2.78652167525e-08  4.85327901752e-08  1.52367114e-07  4.12794306737e-07  
+ data=700
+ 100000000
+ 4.12794306737e-07  
+ 1.52367114e-07  4.09320510335e-07  
+ 4.85327901752e-08  9.53873553683e-08  4.09320510335e-07  
+ 2.78652167525e-08  4.85327901752e-08  1.52367114e-07  4.12794306737e-07  
+ 200000000
+ 4.12794306737e-07  
+ 1.52367114e-07  4.09320510335e-07  
+ 4.85327901752e-08  9.53873553683e-08  4.09320510335e-07  
+ 2.78652167525e-08  4.85327901752e-08  1.52367114e-07  4.12794306737e-07  
+ 300000000
+ 4.12794306737e-07  
+ 1.52367114e-07  4.09320510335e-07  
+ 4.85327901752e-08  9.53873553683e-08  4.09320510335e-07  
+ 2.78652167525e-08  4.85327901752e-08  1.52367114e-07  4.12794306737e-07  
+ 400000000
+ 4.12794306737e-07  
+ 1.52367114e-07  4.09320510335e-07  
+ 4.85327901752e-08  9.53873553683e-08  4.09320510335e-07  
+ 2.78652167525e-08  4.85327901752e-08  1.52367114e-07  4.12794306737e-07  
+ 500000000
+ 4.12794306737e-07  
+ 1.52367114e-07  4.09320510335e-07  
+ 4.85327901752e-08  9.53873553683e-08  4.09320510335e-07  
+ 2.78652167525e-08  4.85327901752e-08  1.52367114e-07  4.12794306737e-07  
+ 600000000
+ 4.12794306737e-07  
+ 1.52367114e-07  4.09320510335e-07  
+ 4.85327901752e-08  9.53873553683e-08  4.09320510335e-07  
+ 2.78652167525e-08  4.85327901752e-08  1.52367114e-07  4.12794306737e-07  
+ 700000000
+ 4.12794306737e-07  
+ 1.52367114e-07  4.09320510335e-07  
+ 4.85327901752e-08  9.53873553683e-08  4.09320510335e-07  
+ 2.78652167525e-08  4.85327901752e-08  1.52367114e-07  4.12794306737e-07  
+ 800000000
+ 4.12794306737e-07  
+ 1.52367114e-07  4.09320510335e-07  
+ 4.85327901752e-08  9.53873553683e-08  4.09320510335e-07  
+ 2.78652167525e-08  4.85327901752e-08  1.52367114e-07  4.12794306737e-07  
+ 900000000
+ 4.12794306737e-07  
+ 1.52367114e-07  4.09320510335e-07  
+ 4.85327901752e-08  9.53873553683e-08  4.09320510335e-07  
+ 2.78652167525e-08  4.85327901752e-08  1.52367114e-07  4.12794306737e-07  
+ 1000000000
+ 4.12794306737e-07  
+ 1.52367114e-07  4.09320510335e-07  
+ 4.85327901752e-08  9.53873553683e-08  4.09320510335e-07  
+ 2.78652167525e-08  4.85327901752e-08  1.52367114e-07  4.12794306737e-07  
+ 1100000000
+ 4.12794306737e-07  
+ 1.52367114e-07  4.09320510335e-07  
+ 4.85327901752e-08  9.53873553683e-08  4.09320510335e-07  
+ 2.78652167525e-08  4.85327901752e-08  1.52367114e-07  4.12794306737e-07  
+ 1200000000
+ 4.12794306737e-07  
+ 1.52367114e-07  4.09320510335e-07  
+ 4.85327901752e-08  9.53873553683e-08  4.09320510335e-07  
+ 2.78652167525e-08  4.85327901752e-08  1.52367114e-07  4.12794306737e-07  
+ 1300000000
+ 4.12794306737e-07  
+ 1.52367114e-07  4.09320510335e-07  
+ 4.85327901752e-08  9.53873553683e-08  4.09320510335e-07  
+ 2.78652167525e-08  4.85327901752e-08  1.52367114e-07  4.12794306737e-07  
+ 1400000000
+ 4.12794306737e-07  
+ 1.52367114e-07  4.09320510335e-07  
+ 4.85327901752e-08  9.53873553683e-08  4.09320510335e-07  
+ 2.78652167525e-08  4.85327901752e-08  1.52367114e-07  4.12794306737e-07  
+ 1500000000
+ 4.12794306737e-07  
+ 1.52367114e-07  4.09320510335e-07  
+ 4.85327901752e-08  9.53873553683e-08  4.09320510335e-07  
+ 2.78652167525e-08  4.85327901752e-08  1.52367114e-07  4.12794306737e-07  
+ 1600000000
+ 4.12794306737e-07  
+ 1.52367114e-07  4.09320510335e-07  
+ 4.85327901752e-08  9.53873553683e-08  4.09320510335e-07  
+ 2.78652167525e-08  4.85327901752e-08  1.52367114e-07  4.12794306737e-07  
+ 1700000000
+ 4.12794306737e-07  
+ 1.52367114e-07  4.09320510335e-07  
+ 4.85327901752e-08  9.53873553683e-08  4.09320510335e-07  
+ 2.78652167525e-08  4.85327901752e-08  1.52367114e-07  4.12794306737e-07  
+ 1800000000
+ 4.12794306737e-07  
+ 1.52367114e-07  4.09320510335e-07  
+ 4.85327901752e-08  9.53873553683e-08  4.09320510335e-07  
+ 2.78652167525e-08  4.85327901752e-08  1.52367114e-07  4.12794306737e-07  
+ 1900000000
+ 4.12794306737e-07  
+ 1.52367114e-07  4.09320510335e-07  
+ 4.85327901752e-08  9.53873553683e-08  4.09320510335e-07  
+ 2.78652167525e-08  4.85327901752e-08  1.52367114e-07  4.12794306737e-07  
+ 2000000000
+ 4.12794306737e-07  
+ 1.52367114e-07  4.09320510335e-07  
+ 4.85327901752e-08  9.53873553683e-08  4.09320510335e-07  
+ 2.78652167525e-08  4.85327901752e-08  1.52367114e-07  4.12794306737e-07  
+ 2100000000
+ 4.12794306737e-07  
+ 1.52367114e-07  4.09320510335e-07  
+ 4.85327901752e-08  9.53873553683e-08  4.09320510335e-07  
+ 2.78652167525e-08  4.85327901752e-08  1.52367114e-07  4.12794306737e-07  
+ 2200000000
+ 4.12794306737e-07  
+ 1.52367114e-07  4.09320510335e-07  
+ 4.85327901752e-08  9.53873553683e-08  4.09320510335e-07  
+ 2.78652167525e-08  4.85327901752e-08  1.52367114e-07  4.12794306737e-07  
+ 2300000000
+ 4.12794306737e-07  
+ 1.52367114e-07  4.09320510335e-07  
+ 4.85327901752e-08  9.53873553683e-08  4.09320510335e-07  
+ 2.78652167525e-08  4.85327901752e-08  1.52367114e-07  4.12794306737e-07  
+ 2400000000
+ 4.12794306737e-07  
+ 1.52367114e-07  4.09320510335e-07  
+ 4.85327901752e-08  9.53873553683e-08  4.09320510335e-07  
+ 2.78652167525e-08  4.85327901752e-08  1.52367114e-07  4.12794306737e-07  
+ 2500000000
+ 4.12794306737e-07  
+ 1.52367114e-07  4.09320510335e-07  
+ 4.85327901752e-08  9.53873553683e-08  4.09320510335e-07  
+ 2.78652167525e-08  4.85327901752e-08  1.52367114e-07  4.12794306737e-07  
+ 2600000000
+ 4.12794306737e-07  
+ 1.52367114e-07  4.09320510335e-07  
+ 4.85327901752e-08  9.53873553683e-08  4.09320510335e-07  
+ 2.78652167525e-08  4.85327901752e-08  1.52367114e-07  4.12794306737e-07  
+ 2700000000
+ 4.12794306737e-07  
+ 1.52367114e-07  4.09320510335e-07  
+ 4.85327901752e-08  9.53873553683e-08  4.09320510335e-07  
+ 2.78652167525e-08  4.85327901752e-08  1.52367114e-07  4.12794306737e-07  
+ 2800000000
+ 4.12794306737e-07  
+ 1.52367114e-07  4.09320510335e-07  
+ 4.85327901752e-08  9.53873553683e-08  4.09320510335e-07  
+ 2.78652167525e-08  4.85327901752e-08  1.52367114e-07  4.12794306737e-07  
+ 2900000000
+ 4.12794306737e-07  
+ 1.52367114e-07  4.09320510335e-07  
+ 4.85327901752e-08  9.53873553683e-08  4.09320510335e-07  
+ 2.78652167525e-08  4.85327901752e-08  1.52367114e-07  4.12794306737e-07  
+ 3000000000
+ 4.12794306737e-07  
+ 1.52367114e-07  4.09320510335e-07  
+ 4.85327901752e-08  9.53873553683e-08  4.09320510335e-07  
+ 2.78652167525e-08  4.85327901752e-08  1.52367114e-07  4.12794306737e-07  
+ 3100000000
+ 4.12794306737e-07  
+ 1.52367114e-07  4.09320510335e-07  
+ 4.85327901752e-08  9.53873553683e-08  4.09320510335e-07  
+ 2.78652167525e-08  4.85327901752e-08  1.52367114e-07  4.12794306737e-07  
+ 3200000000
+ 4.12794306737e-07  
+ 1.52367114e-07  4.09320510335e-07  
+ 4.85327901752e-08  9.53873553683e-08  4.09320510335e-07  
+ 2.78652167525e-08  4.85327901752e-08  1.52367114e-07  4.12794306737e-07  
+ 3300000000
+ 4.12794306737e-07  
+ 1.52367114e-07  4.09320510335e-07  
+ 4.85327901752e-08  9.53873553683e-08  4.09320510335e-07  
+ 2.78652167525e-08  4.85327901752e-08  1.52367114e-07  4.12794306737e-07  
+ 3400000000
+ 4.12794306737e-07  
+ 1.52367114e-07  4.09320510335e-07  
+ 4.85327901752e-08  9.53873553683e-08  4.09320510335e-07  
+ 2.78652167525e-08  4.85327901752e-08  1.52367114e-07  4.12794306737e-07  
+ 3500000000
+ 4.12794306737e-07  
+ 1.52367114e-07  4.09320510335e-07  
+ 4.85327901752e-08  9.53873553683e-08  4.09320510335e-07  
+ 2.78652167525e-08  4.85327901752e-08  1.52367114e-07  4.12794306737e-07  
+ 3600000000
+ 4.12794306737e-07  
+ 1.52367114e-07  4.09320510335e-07  
+ 4.85327901752e-08  9.53873553683e-08  4.09320510335e-07  
+ 2.78652167525e-08  4.85327901752e-08  1.52367114e-07  4.12794306737e-07  
+ 3700000000
+ 4.12794306737e-07  
+ 1.52367114e-07  4.09320510335e-07  
+ 4.85327901752e-08  9.53873553683e-08  4.09320510335e-07  
+ 2.78652167525e-08  4.85327901752e-08  1.52367114e-07  4.12794306737e-07  
+ 3800000000
+ 4.12794306737e-07  
+ 1.52367114e-07  4.09320510335e-07  
+ 4.85327901752e-08  9.53873553683e-08  4.09320510335e-07  
+ 2.78652167525e-08  4.85327901752e-08  1.52367114e-07  4.12794306737e-07  
+ 3900000000
+ 4.12794306737e-07  
+ 1.52367114e-07  4.09320510335e-07  
+ 4.85327901752e-08  9.53873553683e-08  4.09320510335e-07  
+ 2.78652167525e-08  4.85327901752e-08  1.52367114e-07  4.12794306737e-07  
+ 4000000000
+ 4.12794306737e-07  
+ 1.52367114e-07  4.09320510335e-07  
+ 4.85327901752e-08  9.53873553683e-08  4.09320510335e-07  
+ 2.78652167525e-08  4.85327901752e-08  1.52367114e-07  4.12794306737e-07  
+ 4100000000
+ 4.12794306737e-07  
+ 1.52367114e-07  4.09320510335e-07  
+ 4.85327901752e-08  9.53873553683e-08  4.09320510335e-07  
+ 2.78652167525e-08  4.85327901752e-08  1.52367114e-07  4.12794306737e-07  
+ 4200000000
+ 4.12794306737e-07  
+ 1.52367114e-07  4.09320510335e-07  
+ 4.85327901752e-08  9.53873553683e-08  4.09320510335e-07  
+ 2.78652167525e-08  4.85327901752e-08  1.52367114e-07  4.12794306737e-07  
+ 4300000000
+ 4.12794306737e-07  
+ 1.52367114e-07  4.09320510335e-07  
+ 4.85327901752e-08  9.53873553683e-08  4.09320510335e-07  
+ 2.78652167525e-08  4.85327901752e-08  1.52367114e-07  4.12794306737e-07  
+ 4400000000
+ 4.12794306737e-07  
+ 1.52367114e-07  4.09320510335e-07  
+ 4.85327901752e-08  9.53873553683e-08  4.09320510335e-07  
+ 2.78652167525e-08  4.85327901752e-08  1.52367114e-07  4.12794306737e-07  
+ 4500000000
+ 4.12794306737e-07  
+ 1.52367114e-07  4.09320510335e-07  
+ 4.85327901752e-08  9.53873553683e-08  4.09320510335e-07  
+ 2.78652167525e-08  4.85327901752e-08  1.52367114e-07  4.12794306737e-07  
+ 4600000000
+ 4.12794306737e-07  
+ 1.52367114e-07  4.09320510335e-07  
+ 4.85327901752e-08  9.53873553683e-08  4.09320510335e-07  
+ 2.78652167525e-08  4.85327901752e-08  1.52367114e-07  4.12794306737e-07  
+ 4700000000
+ 4.12794306737e-07  
+ 1.52367114e-07  4.09320510335e-07  
+ 4.85327901752e-08  9.53873553683e-08  4.09320510335e-07  
+ 2.78652167525e-08  4.85327901752e-08  1.52367114e-07  4.12794306737e-07  
+ 4800000000
+ 4.12794306737e-07  
+ 1.52367114e-07  4.09320510335e-07  
+ 4.85327901752e-08  9.53873553683e-08  4.09320510335e-07  
+ 2.78652167525e-08  4.85327901752e-08  1.52367114e-07  4.12794306737e-07  
+ 4900000000
+ 4.12794306737e-07  
+ 1.52367114e-07  4.09320510335e-07  
+ 4.85327901752e-08  9.53873553683e-08  4.09320510335e-07  
+ 2.78652167525e-08  4.85327901752e-08  1.52367114e-07  4.12794306737e-07  
+ 5000000000
+ 4.12794306737e-07  
+ 1.52367114e-07  4.09320510335e-07  
+ 4.85327901752e-08  9.53873553683e-08  4.09320510335e-07  
+ 2.78652167525e-08  4.85327901752e-08  1.52367114e-07  4.12794306737e-07  
+ 5100000000
+ 4.12794306737e-07  
+ 1.52367114e-07  4.09320510335e-07  
+ 4.85327901752e-08  9.53873553683e-08  4.09320510335e-07  
+ 2.78652167525e-08  4.85327901752e-08  1.52367114e-07  4.12794306737e-07  
+ 5200000000
+ 4.12794306737e-07  
+ 1.52367114e-07  4.09320510335e-07  
+ 4.85327901752e-08  9.53873553683e-08  4.09320510335e-07  
+ 2.78652167525e-08  4.85327901752e-08  1.52367114e-07  4.12794306737e-07  
+ 5300000000
+ 4.12794306737e-07  
+ 1.52367114e-07  4.09320510335e-07  
+ 4.85327901752e-08  9.53873553683e-08  4.09320510335e-07  
+ 2.78652167525e-08  4.85327901752e-08  1.52367114e-07  4.12794306737e-07  
+ 5400000000
+ 4.12794306737e-07  
+ 1.52367114e-07  4.09320510335e-07  
+ 4.85327901752e-08  9.53873553683e-08  4.09320510335e-07  
+ 2.78652167525e-08  4.85327901752e-08  1.52367114e-07  4.12794306737e-07  
+ 5500000000
+ 4.12794306737e-07  
+ 1.52367114e-07  4.09320510335e-07  
+ 4.85327901752e-08  9.53873553683e-08  4.09320510335e-07  
+ 2.78652167525e-08  4.85327901752e-08  1.52367114e-07  4.12794306737e-07  
+ 5600000000
+ 4.12794306737e-07  
+ 1.52367114e-07  4.09320510335e-07  
+ 4.85327901752e-08  9.53873553683e-08  4.09320510335e-07  
+ 2.78652167525e-08  4.85327901752e-08  1.52367114e-07  4.12794306737e-07  
+ 5700000000
+ 4.12794306737e-07  
+ 1.52367114e-07  4.09320510335e-07  
+ 4.85327901752e-08  9.53873553683e-08  4.09320510335e-07  
+ 2.78652167525e-08  4.85327901752e-08  1.52367114e-07  4.12794306737e-07  
+ 5800000000
+ 4.12794306737e-07  
+ 1.52367114e-07  4.09320510335e-07  
+ 4.85327901752e-08  9.53873553683e-08  4.09320510335e-07  
+ 2.78652167525e-08  4.85327901752e-08  1.52367114e-07  4.12794306737e-07  
+ 5900000000
+ 4.12794306737e-07  
+ 1.52367114e-07  4.09320510335e-07  
+ 4.85327901752e-08  9.53873553683e-08  4.09320510335e-07  
+ 2.78652167525e-08  4.85327901752e-08  1.52367114e-07  4.12794306737e-07  
+ 6000000000
+ 4.12794306737e-07  
+ 1.52367114e-07  4.09320510335e-07  
+ 4.85327901752e-08  9.53873553683e-08  4.09320510335e-07  
+ 2.78652167525e-08  4.85327901752e-08  1.52367114e-07  4.12794306737e-07  
+ 6100000000
+ 4.12794306737e-07  
+ 1.52367114e-07  4.09320510335e-07  
+ 4.85327901752e-08  9.53873553683e-08  4.09320510335e-07  
+ 2.78652167525e-08  4.85327901752e-08  1.52367114e-07  4.12794306737e-07  
+ 6200000000
+ 4.12794306737e-07  
+ 1.52367114e-07  4.09320510335e-07  
+ 4.85327901752e-08  9.53873553683e-08  4.09320510335e-07  
+ 2.78652167525e-08  4.85327901752e-08  1.52367114e-07  4.12794306737e-07  
+ 6300000000
+ 4.12794306737e-07  
+ 1.52367114e-07  4.09320510335e-07  
+ 4.85327901752e-08  9.53873553683e-08  4.09320510335e-07  
+ 2.78652167525e-08  4.85327901752e-08  1.52367114e-07  4.12794306737e-07  
+ 6400000000
+ 4.12794306737e-07  
+ 1.52367114e-07  4.09320510335e-07  
+ 4.85327901752e-08  9.53873553683e-08  4.09320510335e-07  
+ 2.78652167525e-08  4.85327901752e-08  1.52367114e-07  4.12794306737e-07  
+ 6500000000
+ 4.12794306737e-07  
+ 1.52367114e-07  4.09320510335e-07  
+ 4.85327901752e-08  9.53873553683e-08  4.09320510335e-07  
+ 2.78652167525e-08  4.85327901752e-08  1.52367114e-07  4.12794306737e-07  
+ 6600000000
+ 4.12794306737e-07  
+ 1.52367114e-07  4.09320510335e-07  
+ 4.85327901752e-08  9.53873553683e-08  4.09320510335e-07  
+ 2.78652167525e-08  4.85327901752e-08  1.52367114e-07  4.12794306737e-07  
+ 6700000000
+ 4.12794306737e-07  
+ 1.52367114e-07  4.09320510335e-07  
+ 4.85327901752e-08  9.53873553683e-08  4.09320510335e-07  
+ 2.78652167525e-08  4.85327901752e-08  1.52367114e-07  4.12794306737e-07  
+ 6800000000
+ 4.12794306737e-07  
+ 1.52367114e-07  4.09320510335e-07  
+ 4.85327901752e-08  9.53873553683e-08  4.09320510335e-07  
+ 2.78652167525e-08  4.85327901752e-08  1.52367114e-07  4.12794306737e-07  
+ 6900000000
+ 4.12794306737e-07  
+ 1.52367114e-07  4.09320510335e-07  
+ 4.85327901752e-08  9.53873553683e-08  4.09320510335e-07  
+ 2.78652167525e-08  4.85327901752e-08  1.52367114e-07  4.12794306737e-07  
+ 7000000000
+ 4.12794306737e-07  
+ 1.52367114e-07  4.09320510335e-07  
+ 4.85327901752e-08  9.53873553683e-08  4.09320510335e-07  
+ 2.78652167525e-08  4.85327901752e-08  1.52367114e-07  4.12794306737e-07  
+ 7100000000
+ 4.12794306737e-07  
+ 1.52367114e-07  4.09320510335e-07  
+ 4.85327901752e-08  9.53873553683e-08  4.09320510335e-07  
+ 2.78652167525e-08  4.85327901752e-08  1.52367114e-07  4.12794306737e-07  
+ 7200000000
+ 4.12794306737e-07  
+ 1.52367114e-07  4.09320510335e-07  
+ 4.85327901752e-08  9.53873553683e-08  4.09320510335e-07  
+ 2.78652167525e-08  4.85327901752e-08  1.52367114e-07  4.12794306737e-07  
+ 7300000000
+ 4.12794306737e-07  
+ 1.52367114e-07  4.09320510335e-07  
+ 4.85327901752e-08  9.53873553683e-08  4.09320510335e-07  
+ 2.78652167525e-08  4.85327901752e-08  1.52367114e-07  4.12794306737e-07  
+ 7400000000
+ 4.12794306737e-07  
+ 1.52367114e-07  4.09320510335e-07  
+ 4.85327901752e-08  9.53873553683e-08  4.09320510335e-07  
+ 2.78652167525e-08  4.85327901752e-08  1.52367114e-07  4.12794306737e-07  
+ 7500000000
+ 4.12794306737e-07  
+ 1.52367114e-07  4.09320510335e-07  
+ 4.85327901752e-08  9.53873553683e-08  4.09320510335e-07  
+ 2.78652167525e-08  4.85327901752e-08  1.52367114e-07  4.12794306737e-07  
+ 7600000000
+ 4.12794306737e-07  
+ 1.52367114e-07  4.09320510335e-07  
+ 4.85327901752e-08  9.53873553683e-08  4.09320510335e-07  
+ 2.78652167525e-08  4.85327901752e-08  1.52367114e-07  4.12794306737e-07  
+ 7700000000
+ 4.12794306737e-07  
+ 1.52367114e-07  4.09320510335e-07  
+ 4.85327901752e-08  9.53873553683e-08  4.09320510335e-07  
+ 2.78652167525e-08  4.85327901752e-08  1.52367114e-07  4.12794306737e-07  
+ 7800000000
+ 4.12794306737e-07  
+ 1.52367114e-07  4.09320510335e-07  
+ 4.85327901752e-08  9.53873553683e-08  4.09320510335e-07  
+ 2.78652167525e-08  4.85327901752e-08  1.52367114e-07  4.12794306737e-07  
+ 7900000000
+ 4.12794306737e-07  
+ 1.52367114e-07  4.09320510335e-07  
+ 4.85327901752e-08  9.53873553683e-08  4.09320510335e-07  
+ 2.78652167525e-08  4.85327901752e-08  1.52367114e-07  4.12794306737e-07  
+ 8000000000
+ 4.12794306737e-07  
+ 1.52367114e-07  4.09320510335e-07  
+ 4.85327901752e-08  9.53873553683e-08  4.09320510335e-07  
+ 2.78652167525e-08  4.85327901752e-08  1.52367114e-07  4.12794306737e-07  
+ 8100000000
+ 4.12794306737e-07  
+ 1.52367114e-07  4.09320510335e-07  
+ 4.85327901752e-08  9.53873553683e-08  4.09320510335e-07  
+ 2.78652167525e-08  4.85327901752e-08  1.52367114e-07  4.12794306737e-07  
+ 8200000000
+ 4.12794306737e-07  
+ 1.52367114e-07  4.09320510335e-07  
+ 4.85327901752e-08  9.53873553683e-08  4.09320510335e-07  
+ 2.78652167525e-08  4.85327901752e-08  1.52367114e-07  4.12794306737e-07  
+ 8300000000
+ 4.12794306737e-07  
+ 1.52367114e-07  4.09320510335e-07  
+ 4.85327901752e-08  9.53873553683e-08  4.09320510335e-07  
+ 2.78652167525e-08  4.85327901752e-08  1.52367114e-07  4.12794306737e-07  
+ 8400000000
+ 4.12794306737e-07  
+ 1.52367114e-07  4.09320510335e-07  
+ 4.85327901752e-08  9.53873553683e-08  4.09320510335e-07  
+ 2.78652167525e-08  4.85327901752e-08  1.52367114e-07  4.12794306737e-07  
+ 8500000000
+ 4.12794306737e-07  
+ 1.52367114e-07  4.09320510335e-07  
+ 4.85327901752e-08  9.53873553683e-08  4.09320510335e-07  
+ 2.78652167525e-08  4.85327901752e-08  1.52367114e-07  4.12794306737e-07  
+ 8600000000
+ 4.12794306737e-07  
+ 1.52367114e-07  4.09320510335e-07  
+ 4.85327901752e-08  9.53873553683e-08  4.09320510335e-07  
+ 2.78652167525e-08  4.85327901752e-08  1.52367114e-07  4.12794306737e-07  
+ 8700000000
+ 4.12794306737e-07  
+ 1.52367114e-07  4.09320510335e-07  
+ 4.85327901752e-08  9.53873553683e-08  4.09320510335e-07  
+ 2.78652167525e-08  4.85327901752e-08  1.52367114e-07  4.12794306737e-07  
+ 8800000000
+ 4.12794306737e-07  
+ 1.52367114e-07  4.09320510335e-07  
+ 4.85327901752e-08  9.53873553683e-08  4.09320510335e-07  
+ 2.78652167525e-08  4.85327901752e-08  1.52367114e-07  4.12794306737e-07  
+ 8900000000
+ 4.12794306737e-07  
+ 1.52367114e-07  4.09320510335e-07  
+ 4.85327901752e-08  9.53873553683e-08  4.09320510335e-07  
+ 2.78652167525e-08  4.85327901752e-08  1.52367114e-07  4.12794306737e-07  
+ 9000000000
+ 4.12794306737e-07  
+ 1.52367114e-07  4.09320510335e-07  
+ 4.85327901752e-08  9.53873553683e-08  4.09320510335e-07  
+ 2.78652167525e-08  4.85327901752e-08  1.52367114e-07  4.12794306737e-07  
+ 9100000000
+ 4.12794306737e-07  
+ 1.52367114e-07  4.09320510335e-07  
+ 4.85327901752e-08  9.53873553683e-08  4.09320510335e-07  
+ 2.78652167525e-08  4.85327901752e-08  1.52367114e-07  4.12794306737e-07  
+ 9200000000
+ 4.12794306737e-07  
+ 1.52367114e-07  4.09320510335e-07  
+ 4.85327901752e-08  9.53873553683e-08  4.09320510335e-07  
+ 2.78652167525e-08  4.85327901752e-08  1.52367114e-07  4.12794306737e-07  
+ 9300000000
+ 4.12794306737e-07  
+ 1.52367114e-07  4.09320510335e-07  
+ 4.85327901752e-08  9.53873553683e-08  4.09320510335e-07  
+ 2.78652167525e-08  4.85327901752e-08  1.52367114e-07  4.12794306737e-07  
+ 9400000000
+ 4.12794306737e-07  
+ 1.52367114e-07  4.09320510335e-07  
+ 4.85327901752e-08  9.53873553683e-08  4.09320510335e-07  
+ 2.78652167525e-08  4.85327901752e-08  1.52367114e-07  4.12794306737e-07  
+ 9500000000
+ 4.12794306737e-07  
+ 1.52367114e-07  4.09320510335e-07  
+ 4.85327901752e-08  9.53873553683e-08  4.09320510335e-07  
+ 2.78652167525e-08  4.85327901752e-08  1.52367114e-07  4.12794306737e-07  
+ 9600000000
+ 4.12794306737e-07  
+ 1.52367114e-07  4.09320510335e-07  
+ 4.85327901752e-08  9.53873553683e-08  4.09320510335e-07  
+ 2.78652167525e-08  4.85327901752e-08  1.52367114e-07  4.12794306737e-07  
+ 9700000000
+ 4.12794306737e-07  
+ 1.52367114e-07  4.09320510335e-07  
+ 4.85327901752e-08  9.53873553683e-08  4.09320510335e-07  
+ 2.78652167525e-08  4.85327901752e-08  1.52367114e-07  4.12794306737e-07  
+ 9800000000
+ 4.12794306737e-07  
+ 1.52367114e-07  4.09320510335e-07  
+ 4.85327901752e-08  9.53873553683e-08  4.09320510335e-07  
+ 2.78652167525e-08  4.85327901752e-08  1.52367114e-07  4.12794306737e-07  
+ 9900000000
+ 4.12794306737e-07  
+ 1.52367114e-07  4.09320510335e-07  
+ 4.85327901752e-08  9.53873553683e-08  4.09320510335e-07  
+ 2.78652167525e-08  4.85327901752e-08  1.52367114e-07  4.12794306737e-07  
+ 10000000000
+ 4.12794306737e-07  
+ 1.52367114e-07  4.09320510335e-07  
+ 4.85327901752e-08  9.53873553683e-08  4.09320510335e-07  
+ 2.78652167525e-08  4.85327901752e-08  1.52367114e-07  4.12794306737e-07  
+ 10100000000
+ 4.12794306737e-07  
+ 1.52367114e-07  4.09320510335e-07  
+ 4.85327901752e-08  9.53873553683e-08  4.09320510335e-07  
+ 2.78652167525e-08  4.85327901752e-08  1.52367114e-07  4.12794306737e-07  
+ 10200000000
+ 4.12794306737e-07  
+ 1.52367114e-07  4.09320510335e-07  
+ 4.85327901752e-08  9.53873553683e-08  4.09320510335e-07  
+ 2.78652167525e-08  4.85327901752e-08  1.52367114e-07  4.12794306737e-07  
+ 10300000000
+ 4.12794306737e-07  
+ 1.52367114e-07  4.09320510335e-07  
+ 4.85327901752e-08  9.53873553683e-08  4.09320510335e-07  
+ 2.78652167525e-08  4.85327901752e-08  1.52367114e-07  4.12794306737e-07  
+ 10400000000
+ 4.12794306737e-07  
+ 1.52367114e-07  4.09320510335e-07  
+ 4.85327901752e-08  9.53873553683e-08  4.09320510335e-07  
+ 2.78652167525e-08  4.85327901752e-08  1.52367114e-07  4.12794306737e-07  
+ 10500000000
+ 4.12794306737e-07  
+ 1.52367114e-07  4.09320510335e-07  
+ 4.85327901752e-08  9.53873553683e-08  4.09320510335e-07  
+ 2.78652167525e-08  4.85327901752e-08  1.52367114e-07  4.12794306737e-07  
+ 10600000000
+ 4.12794306737e-07  
+ 1.52367114e-07  4.09320510335e-07  
+ 4.85327901752e-08  9.53873553683e-08  4.09320510335e-07  
+ 2.78652167525e-08  4.85327901752e-08  1.52367114e-07  4.12794306737e-07  
+ 10700000000
+ 4.12794306737e-07  
+ 1.52367114e-07  4.09320510335e-07  
+ 4.85327901752e-08  9.53873553683e-08  4.09320510335e-07  
+ 2.78652167525e-08  4.85327901752e-08  1.52367114e-07  4.12794306737e-07  
+ 10800000000
+ 4.12794306737e-07  
+ 1.52367114e-07  4.09320510335e-07  
+ 4.85327901752e-08  9.53873553683e-08  4.09320510335e-07  
+ 2.78652167525e-08  4.85327901752e-08  1.52367114e-07  4.12794306737e-07  
+ 10900000000
+ 4.12794306737e-07  
+ 1.52367114e-07  4.09320510335e-07  
+ 4.85327901752e-08  9.53873553683e-08  4.09320510335e-07  
+ 2.78652167525e-08  4.85327901752e-08  1.52367114e-07  4.12794306737e-07  
+ 11000000000
+ 4.12794306737e-07  
+ 1.52367114e-07  4.09320510335e-07  
+ 4.85327901752e-08  9.53873553683e-08  4.09320510335e-07  
+ 2.78652167525e-08  4.85327901752e-08  1.52367114e-07  4.12794306737e-07  
+ 11100000000
+ 4.12794306737e-07  
+ 1.52367114e-07  4.09320510335e-07  
+ 4.85327901752e-08  9.53873553683e-08  4.09320510335e-07  
+ 2.78652167525e-08  4.85327901752e-08  1.52367114e-07  4.12794306737e-07  
+ 11200000000
+ 4.12794306737e-07  
+ 1.52367114e-07  4.09320510335e-07  
+ 4.85327901752e-08  9.53873553683e-08  4.09320510335e-07  
+ 2.78652167525e-08  4.85327901752e-08  1.52367114e-07  4.12794306737e-07  
+ 11300000000
+ 4.12794306737e-07  
+ 1.52367114e-07  4.09320510335e-07  
+ 4.85327901752e-08  9.53873553683e-08  4.09320510335e-07  
+ 2.78652167525e-08  4.85327901752e-08  1.52367114e-07  4.12794306737e-07  
+ 11400000000
+ 4.12794306737e-07  
+ 1.52367114e-07  4.09320510335e-07  
+ 4.85327901752e-08  9.53873553683e-08  4.09320510335e-07  
+ 2.78652167525e-08  4.85327901752e-08  1.52367114e-07  4.12794306737e-07  
+ 11500000000
+ 4.12794306737e-07  
+ 1.52367114e-07  4.09320510335e-07  
+ 4.85327901752e-08  9.53873553683e-08  4.09320510335e-07  
+ 2.78652167525e-08  4.85327901752e-08  1.52367114e-07  4.12794306737e-07  
+ 11600000000
+ 4.12794306737e-07  
+ 1.52367114e-07  4.09320510335e-07  
+ 4.85327901752e-08  9.53873553683e-08  4.09320510335e-07  
+ 2.78652167525e-08  4.85327901752e-08  1.52367114e-07  4.12794306737e-07  
+ 11700000000
+ 4.12794306737e-07  
+ 1.52367114e-07  4.09320510335e-07  
+ 4.85327901752e-08  9.53873553683e-08  4.09320510335e-07  
+ 2.78652167525e-08  4.85327901752e-08  1.52367114e-07  4.12794306737e-07  
+ 11800000000
+ 4.12794306737e-07  
+ 1.52367114e-07  4.09320510335e-07  
+ 4.85327901752e-08  9.53873553683e-08  4.09320510335e-07  
+ 2.78652167525e-08  4.85327901752e-08  1.52367114e-07  4.12794306737e-07  
+ 11900000000
+ 4.12794306737e-07  
+ 1.52367114e-07  4.09320510335e-07  
+ 4.85327901752e-08  9.53873553683e-08  4.09320510335e-07  
+ 2.78652167525e-08  4.85327901752e-08  1.52367114e-07  4.12794306737e-07  
+ 12000000000
+ 4.12794306737e-07  
+ 1.52367114e-07  4.09320510335e-07  
+ 4.85327901752e-08  9.53873553683e-08  4.09320510335e-07  
+ 2.78652167525e-08  4.85327901752e-08  1.52367114e-07  4.12794306737e-07  
+ 12100000000
+ 4.12794306737e-07  
+ 1.52367114e-07  4.09320510335e-07  
+ 4.85327901752e-08  9.53873553683e-08  4.09320510335e-07  
+ 2.78652167525e-08  4.85327901752e-08  1.52367114e-07  4.12794306737e-07  
+ 12200000000
+ 4.12794306737e-07  
+ 1.52367114e-07  4.09320510335e-07  
+ 4.85327901752e-08  9.53873553683e-08  4.09320510335e-07  
+ 2.78652167525e-08  4.85327901752e-08  1.52367114e-07  4.12794306737e-07  
+ 12300000000
+ 4.12794306737e-07  
+ 1.52367114e-07  4.09320510335e-07  
+ 4.85327901752e-08  9.53873553683e-08  4.09320510335e-07  
+ 2.78652167525e-08  4.85327901752e-08  1.52367114e-07  4.12794306737e-07  
+ 12400000000
+ 4.12794306737e-07  
+ 1.52367114e-07  4.09320510335e-07  
+ 4.85327901752e-08  9.53873553683e-08  4.09320510335e-07  
+ 2.78652167525e-08  4.85327901752e-08  1.52367114e-07  4.12794306737e-07  
+ 12500000000
+ 4.12794306737e-07  
+ 1.52367114e-07  4.09320510335e-07  
+ 4.85327901752e-08  9.53873553683e-08  4.09320510335e-07  
+ 2.78652167525e-08  4.85327901752e-08  1.52367114e-07  4.12794306737e-07  
+ 12600000000
+ 4.12794306737e-07  
+ 1.52367114e-07  4.09320510335e-07  
+ 4.85327901752e-08  9.53873553683e-08  4.09320510335e-07  
+ 2.78652167525e-08  4.85327901752e-08  1.52367114e-07  4.12794306737e-07  
+ 12700000000
+ 4.12794306737e-07  
+ 1.52367114e-07  4.09320510335e-07  
+ 4.85327901752e-08  9.53873553683e-08  4.09320510335e-07  
+ 2.78652167525e-08  4.85327901752e-08  1.52367114e-07  4.12794306737e-07  
+ 12800000000
+ 4.12794306737e-07  
+ 1.52367114e-07  4.09320510335e-07  
+ 4.85327901752e-08  9.53873553683e-08  4.09320510335e-07  
+ 2.78652167525e-08  4.85327901752e-08  1.52367114e-07  4.12794306737e-07  
+ 12900000000
+ 4.12794306737e-07  
+ 1.52367114e-07  4.09320510335e-07  
+ 4.85327901752e-08  9.53873553683e-08  4.09320510335e-07  
+ 2.78652167525e-08  4.85327901752e-08  1.52367114e-07  4.12794306737e-07  
+ 13000000000
+ 4.12794306737e-07  
+ 1.52367114e-07  4.09320510335e-07  
+ 4.85327901752e-08  9.53873553683e-08  4.09320510335e-07  
+ 2.78652167525e-08  4.85327901752e-08  1.52367114e-07  4.12794306737e-07  
+ 13100000000
+ 4.12794306737e-07  
+ 1.52367114e-07  4.09320510335e-07  
+ 4.85327901752e-08  9.53873553683e-08  4.09320510335e-07  
+ 2.78652167525e-08  4.85327901752e-08  1.52367114e-07  4.12794306737e-07  
+ 13200000000
+ 4.12794306737e-07  
+ 1.52367114e-07  4.09320510335e-07  
+ 4.85327901752e-08  9.53873553683e-08  4.09320510335e-07  
+ 2.78652167525e-08  4.85327901752e-08  1.52367114e-07  4.12794306737e-07  
+ 13300000000
+ 4.12794306737e-07  
+ 1.52367114e-07  4.09320510335e-07  
+ 4.85327901752e-08  9.53873553683e-08  4.09320510335e-07  
+ 2.78652167525e-08  4.85327901752e-08  1.52367114e-07  4.12794306737e-07  
+ 13400000000
+ 4.12794306737e-07  
+ 1.52367114e-07  4.09320510335e-07  
+ 4.85327901752e-08  9.53873553683e-08  4.09320510335e-07  
+ 2.78652167525e-08  4.85327901752e-08  1.52367114e-07  4.12794306737e-07  
+ 13500000000
+ 4.12794306737e-07  
+ 1.52367114e-07  4.09320510335e-07  
+ 4.85327901752e-08  9.53873553683e-08  4.09320510335e-07  
+ 2.78652167525e-08  4.85327901752e-08  1.52367114e-07  4.12794306737e-07  
+ 13600000000
+ 4.12794306737e-07  
+ 1.52367114e-07  4.09320510335e-07  
+ 4.85327901752e-08  9.53873553683e-08  4.09320510335e-07  
+ 2.78652167525e-08  4.85327901752e-08  1.52367114e-07  4.12794306737e-07  
+ 13700000000
+ 4.12794306737e-07  
+ 1.52367114e-07  4.09320510335e-07  
+ 4.85327901752e-08  9.53873553683e-08  4.09320510335e-07  
+ 2.78652167525e-08  4.85327901752e-08  1.52367114e-07  4.12794306737e-07  
+ 13800000000
+ 4.12794306737e-07  
+ 1.52367114e-07  4.09320510335e-07  
+ 4.85327901752e-08  9.53873553683e-08  4.09320510335e-07  
+ 2.78652167525e-08  4.85327901752e-08  1.52367114e-07  4.12794306737e-07  
+ 13900000000
+ 4.12794306737e-07  
+ 1.52367114e-07  4.09320510335e-07  
+ 4.85327901752e-08  9.53873553683e-08  4.09320510335e-07  
+ 2.78652167525e-08  4.85327901752e-08  1.52367114e-07  4.12794306737e-07  
+ 14000000000
+ 4.12794306737e-07  
+ 1.52367114e-07  4.09320510335e-07  
+ 4.85327901752e-08  9.53873553683e-08  4.09320510335e-07  
+ 2.78652167525e-08  4.85327901752e-08  1.52367114e-07  4.12794306737e-07  
+ 14100000000
+ 4.12794306737e-07  
+ 1.52367114e-07  4.09320510335e-07  
+ 4.85327901752e-08  9.53873553683e-08  4.09320510335e-07  
+ 2.78652167525e-08  4.85327901752e-08  1.52367114e-07  4.12794306737e-07  
+ 14200000000
+ 4.12794306737e-07  
+ 1.52367114e-07  4.09320510335e-07  
+ 4.85327901752e-08  9.53873553683e-08  4.09320510335e-07  
+ 2.78652167525e-08  4.85327901752e-08  1.52367114e-07  4.12794306737e-07  
+ 14300000000
+ 4.12794306737e-07  
+ 1.52367114e-07  4.09320510335e-07  
+ 4.85327901752e-08  9.53873553683e-08  4.09320510335e-07  
+ 2.78652167525e-08  4.85327901752e-08  1.52367114e-07  4.12794306737e-07  
+ 14400000000
+ 4.12794306737e-07  
+ 1.52367114e-07  4.09320510335e-07  
+ 4.85327901752e-08  9.53873553683e-08  4.09320510335e-07  
+ 2.78652167525e-08  4.85327901752e-08  1.52367114e-07  4.12794306737e-07  
+ 14500000000
+ 4.12794306737e-07  
+ 1.52367114e-07  4.09320510335e-07  
+ 4.85327901752e-08  9.53873553683e-08  4.09320510335e-07  
+ 2.78652167525e-08  4.85327901752e-08  1.52367114e-07  4.12794306737e-07  
+ 14600000000
+ 4.12794306737e-07  
+ 1.52367114e-07  4.09320510335e-07  
+ 4.85327901752e-08  9.53873553683e-08  4.09320510335e-07  
+ 2.78652167525e-08  4.85327901752e-08  1.52367114e-07  4.12794306737e-07  
+ 14700000000
+ 4.12794306737e-07  
+ 1.52367114e-07  4.09320510335e-07  
+ 4.85327901752e-08  9.53873553683e-08  4.09320510335e-07  
+ 2.78652167525e-08  4.85327901752e-08  1.52367114e-07  4.12794306737e-07  
+ 14800000000
+ 4.12794306737e-07  
+ 1.52367114e-07  4.09320510335e-07  
+ 4.85327901752e-08  9.53873553683e-08  4.09320510335e-07  
+ 2.78652167525e-08  4.85327901752e-08  1.52367114e-07  4.12794306737e-07  
+ 14900000000
+ 4.12794306737e-07  
+ 1.52367114e-07  4.09320510335e-07  
+ 4.85327901752e-08  9.53873553683e-08  4.09320510335e-07  
+ 2.78652167525e-08  4.85327901752e-08  1.52367114e-07  4.12794306737e-07  
+ 15000000000
+ 4.12794306737e-07  
+ 1.52367114e-07  4.09320510335e-07  
+ 4.85327901752e-08  9.53873553683e-08  4.09320510335e-07  
+ 2.78652167525e-08  4.85327901752e-08  1.52367114e-07  4.12794306737e-07  
+ 15100000000
+ 4.12794306737e-07  
+ 1.52367114e-07  4.09320510335e-07  
+ 4.85327901752e-08  9.53873553683e-08  4.09320510335e-07  
+ 2.78652167525e-08  4.85327901752e-08  1.52367114e-07  4.12794306737e-07  
+ 15200000000
+ 4.12794306737e-07  
+ 1.52367114e-07  4.09320510335e-07  
+ 4.85327901752e-08  9.53873553683e-08  4.09320510335e-07  
+ 2.78652167525e-08  4.85327901752e-08  1.52367114e-07  4.12794306737e-07  
+ 15300000000
+ 4.12794306737e-07  
+ 1.52367114e-07  4.09320510335e-07  
+ 4.85327901752e-08  9.53873553683e-08  4.09320510335e-07  
+ 2.78652167525e-08  4.85327901752e-08  1.52367114e-07  4.12794306737e-07  
+ 15400000000
+ 4.12794306737e-07  
+ 1.52367114e-07  4.09320510335e-07  
+ 4.85327901752e-08  9.53873553683e-08  4.09320510335e-07  
+ 2.78652167525e-08  4.85327901752e-08  1.52367114e-07  4.12794306737e-07  
+ 15500000000
+ 4.12794306737e-07  
+ 1.52367114e-07  4.09320510335e-07  
+ 4.85327901752e-08  9.53873553683e-08  4.09320510335e-07  
+ 2.78652167525e-08  4.85327901752e-08  1.52367114e-07  4.12794306737e-07  
+ 15600000000
+ 4.12794306737e-07  
+ 1.52367114e-07  4.09320510335e-07  
+ 4.85327901752e-08  9.53873553683e-08  4.09320510335e-07  
+ 2.78652167525e-08  4.85327901752e-08  1.52367114e-07  4.12794306737e-07  
+ 15700000000
+ 4.12794306737e-07  
+ 1.52367114e-07  4.09320510335e-07  
+ 4.85327901752e-08  9.53873553683e-08  4.09320510335e-07  
+ 2.78652167525e-08  4.85327901752e-08  1.52367114e-07  4.12794306737e-07  
+ 15800000000
+ 4.12794306737e-07  
+ 1.52367114e-07  4.09320510335e-07  
+ 4.85327901752e-08  9.53873553683e-08  4.09320510335e-07  
+ 2.78652167525e-08  4.85327901752e-08  1.52367114e-07  4.12794306737e-07  
+ 15900000000
+ 4.12794306737e-07  
+ 1.52367114e-07  4.09320510335e-07  
+ 4.85327901752e-08  9.53873553683e-08  4.09320510335e-07  
+ 2.78652167525e-08  4.85327901752e-08  1.52367114e-07  4.12794306737e-07  
+ 16000000000
+ 4.12794306737e-07  
+ 1.52367114e-07  4.09320510335e-07  
+ 4.85327901752e-08  9.53873553683e-08  4.09320510335e-07  
+ 2.78652167525e-08  4.85327901752e-08  1.52367114e-07  4.12794306737e-07  
+ 16100000000
+ 4.12794306737e-07  
+ 1.52367114e-07  4.09320510335e-07  
+ 4.85327901752e-08  9.53873553683e-08  4.09320510335e-07  
+ 2.78652167525e-08  4.85327901752e-08  1.52367114e-07  4.12794306737e-07  
+ 16200000000
+ 4.12794306737e-07  
+ 1.52367114e-07  4.09320510335e-07  
+ 4.85327901752e-08  9.53873553683e-08  4.09320510335e-07  
+ 2.78652167525e-08  4.85327901752e-08  1.52367114e-07  4.12794306737e-07  
+ 16300000000
+ 4.12794306737e-07  
+ 1.52367114e-07  4.09320510335e-07  
+ 4.85327901752e-08  9.53873553683e-08  4.09320510335e-07  
+ 2.78652167525e-08  4.85327901752e-08  1.52367114e-07  4.12794306737e-07  
+ 16400000000
+ 4.12794306737e-07  
+ 1.52367114e-07  4.09320510335e-07  
+ 4.85327901752e-08  9.53873553683e-08  4.09320510335e-07  
+ 2.78652167525e-08  4.85327901752e-08  1.52367114e-07  4.12794306737e-07  
+ 16500000000
+ 4.12794306737e-07  
+ 1.52367114e-07  4.09320510335e-07  
+ 4.85327901752e-08  9.53873553683e-08  4.09320510335e-07  
+ 2.78652167525e-08  4.85327901752e-08  1.52367114e-07  4.12794306737e-07  
+ 16600000000
+ 4.12794306737e-07  
+ 1.52367114e-07  4.09320510335e-07  
+ 4.85327901752e-08  9.53873553683e-08  4.09320510335e-07  
+ 2.78652167525e-08  4.85327901752e-08  1.52367114e-07  4.12794306737e-07  
+ 16700000000
+ 4.12794306737e-07  
+ 1.52367114e-07  4.09320510335e-07  
+ 4.85327901752e-08  9.53873553683e-08  4.09320510335e-07  
+ 2.78652167525e-08  4.85327901752e-08  1.52367114e-07  4.12794306737e-07  
+ 16800000000
+ 4.12794306737e-07  
+ 1.52367114e-07  4.09320510335e-07  
+ 4.85327901752e-08  9.53873553683e-08  4.09320510335e-07  
+ 2.78652167525e-08  4.85327901752e-08  1.52367114e-07  4.12794306737e-07  
+ 16900000000
+ 4.12794306737e-07  
+ 1.52367114e-07  4.09320510335e-07  
+ 4.85327901752e-08  9.53873553683e-08  4.09320510335e-07  
+ 2.78652167525e-08  4.85327901752e-08  1.52367114e-07  4.12794306737e-07  
+ 17000000000
+ 4.12794306737e-07  
+ 1.52367114e-07  4.09320510335e-07  
+ 4.85327901752e-08  9.53873553683e-08  4.09320510335e-07  
+ 2.78652167525e-08  4.85327901752e-08  1.52367114e-07  4.12794306737e-07  
+ 17100000000
+ 4.12794306737e-07  
+ 1.52367114e-07  4.09320510335e-07  
+ 4.85327901752e-08  9.53873553683e-08  4.09320510335e-07  
+ 2.78652167525e-08  4.85327901752e-08  1.52367114e-07  4.12794306737e-07  
+ 17200000000
+ 4.12794306737e-07  
+ 1.52367114e-07  4.09320510335e-07  
+ 4.85327901752e-08  9.53873553683e-08  4.09320510335e-07  
+ 2.78652167525e-08  4.85327901752e-08  1.52367114e-07  4.12794306737e-07  
+ 17300000000
+ 4.12794306737e-07  
+ 1.52367114e-07  4.09320510335e-07  
+ 4.85327901752e-08  9.53873553683e-08  4.09320510335e-07  
+ 2.78652167525e-08  4.85327901752e-08  1.52367114e-07  4.12794306737e-07  
+ 17400000000
+ 4.12794306737e-07  
+ 1.52367114e-07  4.09320510335e-07  
+ 4.85327901752e-08  9.53873553683e-08  4.09320510335e-07  
+ 2.78652167525e-08  4.85327901752e-08  1.52367114e-07  4.12794306737e-07  
+ 17500000000
+ 4.12794306737e-07  
+ 1.52367114e-07  4.09320510335e-07  
+ 4.85327901752e-08  9.53873553683e-08  4.09320510335e-07  
+ 2.78652167525e-08  4.85327901752e-08  1.52367114e-07  4.12794306737e-07  
+ 17600000000
+ 4.12794306737e-07  
+ 1.52367114e-07  4.09320510335e-07  
+ 4.85327901752e-08  9.53873553683e-08  4.09320510335e-07  
+ 2.78652167525e-08  4.85327901752e-08  1.52367114e-07  4.12794306737e-07  
+ 17700000000
+ 4.12794306737e-07  
+ 1.52367114e-07  4.09320510335e-07  
+ 4.85327901752e-08  9.53873553683e-08  4.09320510335e-07  
+ 2.78652167525e-08  4.85327901752e-08  1.52367114e-07  4.12794306737e-07  
+ 17800000000
+ 4.12794306737e-07  
+ 1.52367114e-07  4.09320510335e-07  
+ 4.85327901752e-08  9.53873553683e-08  4.09320510335e-07  
+ 2.78652167525e-08  4.85327901752e-08  1.52367114e-07  4.12794306737e-07  
+ 17900000000
+ 4.12794306737e-07  
+ 1.52367114e-07  4.09320510335e-07  
+ 4.85327901752e-08  9.53873553683e-08  4.09320510335e-07  
+ 2.78652167525e-08  4.85327901752e-08  1.52367114e-07  4.12794306737e-07  
+ 18000000000
+ 4.12794306737e-07  
+ 1.52367114e-07  4.09320510335e-07  
+ 4.85327901752e-08  9.53873553683e-08  4.09320510335e-07  
+ 2.78652167525e-08  4.85327901752e-08  1.52367114e-07  4.12794306737e-07  
+ 18100000000
+ 4.12794306737e-07  
+ 1.52367114e-07  4.09320510335e-07  
+ 4.85327901752e-08  9.53873553683e-08  4.09320510335e-07  
+ 2.78652167525e-08  4.85327901752e-08  1.52367114e-07  4.12794306737e-07  
+ 18200000000
+ 4.12794306737e-07  
+ 1.52367114e-07  4.09320510335e-07  
+ 4.85327901752e-08  9.53873553683e-08  4.09320510335e-07  
+ 2.78652167525e-08  4.85327901752e-08  1.52367114e-07  4.12794306737e-07  
+ 18300000000
+ 4.12794306737e-07  
+ 1.52367114e-07  4.09320510335e-07  
+ 4.85327901752e-08  9.53873553683e-08  4.09320510335e-07  
+ 2.78652167525e-08  4.85327901752e-08  1.52367114e-07  4.12794306737e-07  
+ 18400000000
+ 4.12794306737e-07  
+ 1.52367114e-07  4.09320510335e-07  
+ 4.85327901752e-08  9.53873553683e-08  4.09320510335e-07  
+ 2.78652167525e-08  4.85327901752e-08  1.52367114e-07  4.12794306737e-07  
+ 18500000000
+ 4.12794306737e-07  
+ 1.52367114e-07  4.09320510335e-07  
+ 4.85327901752e-08  9.53873553683e-08  4.09320510335e-07  
+ 2.78652167525e-08  4.85327901752e-08  1.52367114e-07  4.12794306737e-07  
+ 18600000000
+ 4.12794306737e-07  
+ 1.52367114e-07  4.09320510335e-07  
+ 4.85327901752e-08  9.53873553683e-08  4.09320510335e-07  
+ 2.78652167525e-08  4.85327901752e-08  1.52367114e-07  4.12794306737e-07  
+ 18700000000
+ 4.12794306737e-07  
+ 1.52367114e-07  4.09320510335e-07  
+ 4.85327901752e-08  9.53873553683e-08  4.09320510335e-07  
+ 2.78652167525e-08  4.85327901752e-08  1.52367114e-07  4.12794306737e-07  
+ 18800000000
+ 4.12794306737e-07  
+ 1.52367114e-07  4.09320510335e-07  
+ 4.85327901752e-08  9.53873553683e-08  4.09320510335e-07  
+ 2.78652167525e-08  4.85327901752e-08  1.52367114e-07  4.12794306737e-07  
+ 18900000000
+ 4.12794306737e-07  
+ 1.52367114e-07  4.09320510335e-07  
+ 4.85327901752e-08  9.53873553683e-08  4.09320510335e-07  
+ 2.78652167525e-08  4.85327901752e-08  1.52367114e-07  4.12794306737e-07  
+ 19000000000
+ 4.12794306737e-07  
+ 1.52367114e-07  4.09320510335e-07  
+ 4.85327901752e-08  9.53873553683e-08  4.09320510335e-07  
+ 2.78652167525e-08  4.85327901752e-08  1.52367114e-07  4.12794306737e-07  
+ 19100000000
+ 4.12794306737e-07  
+ 1.52367114e-07  4.09320510335e-07  
+ 4.85327901752e-08  9.53873553683e-08  4.09320510335e-07  
+ 2.78652167525e-08  4.85327901752e-08  1.52367114e-07  4.12794306737e-07  
+ 19200000000
+ 4.12794306737e-07  
+ 1.52367114e-07  4.09320510335e-07  
+ 4.85327901752e-08  9.53873553683e-08  4.09320510335e-07  
+ 2.78652167525e-08  4.85327901752e-08  1.52367114e-07  4.12794306737e-07  
+ 19300000000
+ 4.12794306737e-07  
+ 1.52367114e-07  4.09320510335e-07  
+ 4.85327901752e-08  9.53873553683e-08  4.09320510335e-07  
+ 2.78652167525e-08  4.85327901752e-08  1.52367114e-07  4.12794306737e-07  
+ 19400000000
+ 4.12794306737e-07  
+ 1.52367114e-07  4.09320510335e-07  
+ 4.85327901752e-08  9.53873553683e-08  4.09320510335e-07  
+ 2.78652167525e-08  4.85327901752e-08  1.52367114e-07  4.12794306737e-07  
+ 19500000000
+ 4.12794306737e-07  
+ 1.52367114e-07  4.09320510335e-07  
+ 4.85327901752e-08  9.53873553683e-08  4.09320510335e-07  
+ 2.78652167525e-08  4.85327901752e-08  1.52367114e-07  4.12794306737e-07  
+ 19600000000
+ 4.12794306737e-07  
+ 1.52367114e-07  4.09320510335e-07  
+ 4.85327901752e-08  9.53873553683e-08  4.09320510335e-07  
+ 2.78652167525e-08  4.85327901752e-08  1.52367114e-07  4.12794306737e-07  
+ 19700000000
+ 4.12794306737e-07  
+ 1.52367114e-07  4.09320510335e-07  
+ 4.85327901752e-08  9.53873553683e-08  4.09320510335e-07  
+ 2.78652167525e-08  4.85327901752e-08  1.52367114e-07  4.12794306737e-07  
+ 19800000000
+ 4.12794306737e-07  
+ 1.52367114e-07  4.09320510335e-07  
+ 4.85327901752e-08  9.53873553683e-08  4.09320510335e-07  
+ 2.78652167525e-08  4.85327901752e-08  1.52367114e-07  4.12794306737e-07  
+ 19900000000
+ 4.12794306737e-07  
+ 1.52367114e-07  4.09320510335e-07  
+ 4.85327901752e-08  9.53873553683e-08  4.09320510335e-07  
+ 2.78652167525e-08  4.85327901752e-08  1.52367114e-07  4.12794306737e-07  
+ 20000000000
+ 4.12794306737e-07  
+ 1.52367114e-07  4.09320510335e-07  
+ 4.85327901752e-08  9.53873553683e-08  4.09320510335e-07  
+ 2.78652167525e-08  4.85327901752e-08  1.52367114e-07  4.12794306737e-07  
+ 20100000000
+ 4.12794306737e-07  
+ 1.52367114e-07  4.09320510335e-07  
+ 4.85327901752e-08  9.53873553683e-08  4.09320510335e-07  
+ 2.78652167525e-08  4.85327901752e-08  1.52367114e-07  4.12794306737e-07  
+ 20200000000
+ 4.12794306737e-07  
+ 1.52367114e-07  4.09320510335e-07  
+ 4.85327901752e-08  9.53873553683e-08  4.09320510335e-07  
+ 2.78652167525e-08  4.85327901752e-08  1.52367114e-07  4.12794306737e-07  
+ 20300000000
+ 4.12794306737e-07  
+ 1.52367114e-07  4.09320510335e-07  
+ 4.85327901752e-08  9.53873553683e-08  4.09320510335e-07  
+ 2.78652167525e-08  4.85327901752e-08  1.52367114e-07  4.12794306737e-07  
+ 20400000000
+ 4.12794306737e-07  
+ 1.52367114e-07  4.09320510335e-07  
+ 4.85327901752e-08  9.53873553683e-08  4.09320510335e-07  
+ 2.78652167525e-08  4.85327901752e-08  1.52367114e-07  4.12794306737e-07  
+ 20500000000
+ 4.12794306737e-07  
+ 1.52367114e-07  4.09320510335e-07  
+ 4.85327901752e-08  9.53873553683e-08  4.09320510335e-07  
+ 2.78652167525e-08  4.85327901752e-08  1.52367114e-07  4.12794306737e-07  
+ 20600000000
+ 4.12794306737e-07  
+ 1.52367114e-07  4.09320510335e-07  
+ 4.85327901752e-08  9.53873553683e-08  4.09320510335e-07  
+ 2.78652167525e-08  4.85327901752e-08  1.52367114e-07  4.12794306737e-07  
+ 20700000000
+ 4.12794306737e-07  
+ 1.52367114e-07  4.09320510335e-07  
+ 4.85327901752e-08  9.53873553683e-08  4.09320510335e-07  
+ 2.78652167525e-08  4.85327901752e-08  1.52367114e-07  4.12794306737e-07  
+ 20800000000
+ 4.12794306737e-07  
+ 1.52367114e-07  4.09320510335e-07  
+ 4.85327901752e-08  9.53873553683e-08  4.09320510335e-07  
+ 2.78652167525e-08  4.85327901752e-08  1.52367114e-07  4.12794306737e-07  
+ 20900000000
+ 4.12794306737e-07  
+ 1.52367114e-07  4.09320510335e-07  
+ 4.85327901752e-08  9.53873553683e-08  4.09320510335e-07  
+ 2.78652167525e-08  4.85327901752e-08  1.52367114e-07  4.12794306737e-07  
+ 21000000000
+ 4.12794306737e-07  
+ 1.52367114e-07  4.09320510335e-07  
+ 4.85327901752e-08  9.53873553683e-08  4.09320510335e-07  
+ 2.78652167525e-08  4.85327901752e-08  1.52367114e-07  4.12794306737e-07  
+ 21100000000
+ 4.12794306737e-07  
+ 1.52367114e-07  4.09320510335e-07  
+ 4.85327901752e-08  9.53873553683e-08  4.09320510335e-07  
+ 2.78652167525e-08  4.85327901752e-08  1.52367114e-07  4.12794306737e-07  
+ 21200000000
+ 4.12794306737e-07  
+ 1.52367114e-07  4.09320510335e-07  
+ 4.85327901752e-08  9.53873553683e-08  4.09320510335e-07  
+ 2.78652167525e-08  4.85327901752e-08  1.52367114e-07  4.12794306737e-07  
+ 21300000000
+ 4.12794306737e-07  
+ 1.52367114e-07  4.09320510335e-07  
+ 4.85327901752e-08  9.53873553683e-08  4.09320510335e-07  
+ 2.78652167525e-08  4.85327901752e-08  1.52367114e-07  4.12794306737e-07  
+ 21400000000
+ 4.12794306737e-07  
+ 1.52367114e-07  4.09320510335e-07  
+ 4.85327901752e-08  9.53873553683e-08  4.09320510335e-07  
+ 2.78652167525e-08  4.85327901752e-08  1.52367114e-07  4.12794306737e-07  
+ 21500000000
+ 4.12794306737e-07  
+ 1.52367114e-07  4.09320510335e-07  
+ 4.85327901752e-08  9.53873553683e-08  4.09320510335e-07  
+ 2.78652167525e-08  4.85327901752e-08  1.52367114e-07  4.12794306737e-07  
+ 21600000000
+ 4.12794306737e-07  
+ 1.52367114e-07  4.09320510335e-07  
+ 4.85327901752e-08  9.53873553683e-08  4.09320510335e-07  
+ 2.78652167525e-08  4.85327901752e-08  1.52367114e-07  4.12794306737e-07  
+ 21700000000
+ 4.12794306737e-07  
+ 1.52367114e-07  4.09320510335e-07  
+ 4.85327901752e-08  9.53873553683e-08  4.09320510335e-07  
+ 2.78652167525e-08  4.85327901752e-08  1.52367114e-07  4.12794306737e-07  
+ 21800000000
+ 4.12794306737e-07  
+ 1.52367114e-07  4.09320510335e-07  
+ 4.85327901752e-08  9.53873553683e-08  4.09320510335e-07  
+ 2.78652167525e-08  4.85327901752e-08  1.52367114e-07  4.12794306737e-07  
+ 21900000000
+ 4.12794306737e-07  
+ 1.52367114e-07  4.09320510335e-07  
+ 4.85327901752e-08  9.53873553683e-08  4.09320510335e-07  
+ 2.78652167525e-08  4.85327901752e-08  1.52367114e-07  4.12794306737e-07  
+ 22000000000
+ 4.12794306737e-07  
+ 1.52367114e-07  4.09320510335e-07  
+ 4.85327901752e-08  9.53873553683e-08  4.09320510335e-07  
+ 2.78652167525e-08  4.85327901752e-08  1.52367114e-07  4.12794306737e-07  
+ 22100000000
+ 4.12794306737e-07  
+ 1.52367114e-07  4.09320510335e-07  
+ 4.85327901752e-08  9.53873553683e-08  4.09320510335e-07  
+ 2.78652167525e-08  4.85327901752e-08  1.52367114e-07  4.12794306737e-07  
+ 22200000000
+ 4.12794306737e-07  
+ 1.52367114e-07  4.09320510335e-07  
+ 4.85327901752e-08  9.53873553683e-08  4.09320510335e-07  
+ 2.78652167525e-08  4.85327901752e-08  1.52367114e-07  4.12794306737e-07  
+ 22300000000
+ 4.12794306737e-07  
+ 1.52367114e-07  4.09320510335e-07  
+ 4.85327901752e-08  9.53873553683e-08  4.09320510335e-07  
+ 2.78652167525e-08  4.85327901752e-08  1.52367114e-07  4.12794306737e-07  
+ 22400000000
+ 4.12794306737e-07  
+ 1.52367114e-07  4.09320510335e-07  
+ 4.85327901752e-08  9.53873553683e-08  4.09320510335e-07  
+ 2.78652167525e-08  4.85327901752e-08  1.52367114e-07  4.12794306737e-07  
+ 22500000000
+ 4.12794306737e-07  
+ 1.52367114e-07  4.09320510335e-07  
+ 4.85327901752e-08  9.53873553683e-08  4.09320510335e-07  
+ 2.78652167525e-08  4.85327901752e-08  1.52367114e-07  4.12794306737e-07  
+ 22600000000
+ 4.12794306737e-07  
+ 1.52367114e-07  4.09320510335e-07  
+ 4.85327901752e-08  9.53873553683e-08  4.09320510335e-07  
+ 2.78652167525e-08  4.85327901752e-08  1.52367114e-07  4.12794306737e-07  
+ 22700000000
+ 4.12794306737e-07  
+ 1.52367114e-07  4.09320510335e-07  
+ 4.85327901752e-08  9.53873553683e-08  4.09320510335e-07  
+ 2.78652167525e-08  4.85327901752e-08  1.52367114e-07  4.12794306737e-07  
+ 22800000000
+ 4.12794306737e-07  
+ 1.52367114e-07  4.09320510335e-07  
+ 4.85327901752e-08  9.53873553683e-08  4.09320510335e-07  
+ 2.78652167525e-08  4.85327901752e-08  1.52367114e-07  4.12794306737e-07  
+ 22900000000
+ 4.12794306737e-07  
+ 1.52367114e-07  4.09320510335e-07  
+ 4.85327901752e-08  9.53873553683e-08  4.09320510335e-07  
+ 2.78652167525e-08  4.85327901752e-08  1.52367114e-07  4.12794306737e-07  
+ 23000000000
+ 4.12794306737e-07  
+ 1.52367114e-07  4.09320510335e-07  
+ 4.85327901752e-08  9.53873553683e-08  4.09320510335e-07  
+ 2.78652167525e-08  4.85327901752e-08  1.52367114e-07  4.12794306737e-07  
+ 23100000000
+ 4.12794306737e-07  
+ 1.52367114e-07  4.09320510335e-07  
+ 4.85327901752e-08  9.53873553683e-08  4.09320510335e-07  
+ 2.78652167525e-08  4.85327901752e-08  1.52367114e-07  4.12794306737e-07  
+ 23200000000
+ 4.12794306737e-07  
+ 1.52367114e-07  4.09320510335e-07  
+ 4.85327901752e-08  9.53873553683e-08  4.09320510335e-07  
+ 2.78652167525e-08  4.85327901752e-08  1.52367114e-07  4.12794306737e-07  
+ 23300000000
+ 4.12794306737e-07  
+ 1.52367114e-07  4.09320510335e-07  
+ 4.85327901752e-08  9.53873553683e-08  4.09320510335e-07  
+ 2.78652167525e-08  4.85327901752e-08  1.52367114e-07  4.12794306737e-07  
+ 23400000000
+ 4.12794306737e-07  
+ 1.52367114e-07  4.09320510335e-07  
+ 4.85327901752e-08  9.53873553683e-08  4.09320510335e-07  
+ 2.78652167525e-08  4.85327901752e-08  1.52367114e-07  4.12794306737e-07  
+ 23500000000
+ 4.12794306737e-07  
+ 1.52367114e-07  4.09320510335e-07  
+ 4.85327901752e-08  9.53873553683e-08  4.09320510335e-07  
+ 2.78652167525e-08  4.85327901752e-08  1.52367114e-07  4.12794306737e-07  
+ 23600000000
+ 4.12794306737e-07  
+ 1.52367114e-07  4.09320510335e-07  
+ 4.85327901752e-08  9.53873553683e-08  4.09320510335e-07  
+ 2.78652167525e-08  4.85327901752e-08  1.52367114e-07  4.12794306737e-07  
+ 23700000000
+ 4.12794306737e-07  
+ 1.52367114e-07  4.09320510335e-07  
+ 4.85327901752e-08  9.53873553683e-08  4.09320510335e-07  
+ 2.78652167525e-08  4.85327901752e-08  1.52367114e-07  4.12794306737e-07  
+ 23800000000
+ 4.12794306737e-07  
+ 1.52367114e-07  4.09320510335e-07  
+ 4.85327901752e-08  9.53873553683e-08  4.09320510335e-07  
+ 2.78652167525e-08  4.85327901752e-08  1.52367114e-07  4.12794306737e-07  
+ 23900000000
+ 4.12794306737e-07  
+ 1.52367114e-07  4.09320510335e-07  
+ 4.85327901752e-08  9.53873553683e-08  4.09320510335e-07  
+ 2.78652167525e-08  4.85327901752e-08  1.52367114e-07  4.12794306737e-07  
+ 24000000000
+ 4.12794306737e-07  
+ 1.52367114e-07  4.09320510335e-07  
+ 4.85327901752e-08  9.53873553683e-08  4.09320510335e-07  
+ 2.78652167525e-08  4.85327901752e-08  1.52367114e-07  4.12794306737e-07  
+ 24100000000
+ 4.12794306737e-07  
+ 1.52367114e-07  4.09320510335e-07  
+ 4.85327901752e-08  9.53873553683e-08  4.09320510335e-07  
+ 2.78652167525e-08  4.85327901752e-08  1.52367114e-07  4.12794306737e-07  
+ 24200000000
+ 4.12794306737e-07  
+ 1.52367114e-07  4.09320510335e-07  
+ 4.85327901752e-08  9.53873553683e-08  4.09320510335e-07  
+ 2.78652167525e-08  4.85327901752e-08  1.52367114e-07  4.12794306737e-07  
+ 24300000000
+ 4.12794306737e-07  
+ 1.52367114e-07  4.09320510335e-07  
+ 4.85327901752e-08  9.53873553683e-08  4.09320510335e-07  
+ 2.78652167525e-08  4.85327901752e-08  1.52367114e-07  4.12794306737e-07  
+ 24400000000
+ 4.12794306737e-07  
+ 1.52367114e-07  4.09320510335e-07  
+ 4.85327901752e-08  9.53873553683e-08  4.09320510335e-07  
+ 2.78652167525e-08  4.85327901752e-08  1.52367114e-07  4.12794306737e-07  
+ 24500000000
+ 4.12794306737e-07  
+ 1.52367114e-07  4.09320510335e-07  
+ 4.85327901752e-08  9.53873553683e-08  4.09320510335e-07  
+ 2.78652167525e-08  4.85327901752e-08  1.52367114e-07  4.12794306737e-07  
+ 24600000000
+ 4.12794306737e-07  
+ 1.52367114e-07  4.09320510335e-07  
+ 4.85327901752e-08  9.53873553683e-08  4.09320510335e-07  
+ 2.78652167525e-08  4.85327901752e-08  1.52367114e-07  4.12794306737e-07  
+ 24700000000
+ 4.12794306737e-07  
+ 1.52367114e-07  4.09320510335e-07  
+ 4.85327901752e-08  9.53873553683e-08  4.09320510335e-07  
+ 2.78652167525e-08  4.85327901752e-08  1.52367114e-07  4.12794306737e-07  
+ 24800000000
+ 4.12794306737e-07  
+ 1.52367114e-07  4.09320510335e-07  
+ 4.85327901752e-08  9.53873553683e-08  4.09320510335e-07  
+ 2.78652167525e-08  4.85327901752e-08  1.52367114e-07  4.12794306737e-07  
+ 24900000000
+ 4.12794306737e-07  
+ 1.52367114e-07  4.09320510335e-07  
+ 4.85327901752e-08  9.53873553683e-08  4.09320510335e-07  
+ 2.78652167525e-08  4.85327901752e-08  1.52367114e-07  4.12794306737e-07  
+ 25000000000
+ 4.12794306737e-07  
+ 1.52367114e-07  4.09320510335e-07  
+ 4.85327901752e-08  9.53873553683e-08  4.09320510335e-07  
+ 2.78652167525e-08  4.85327901752e-08  1.52367114e-07  4.12794306737e-07  
+ 25100000000
+ 4.12794306737e-07  
+ 1.52367114e-07  4.09320510335e-07  
+ 4.85327901752e-08  9.53873553683e-08  4.09320510335e-07  
+ 2.78652167525e-08  4.85327901752e-08  1.52367114e-07  4.12794306737e-07  
+ 25200000000
+ 4.12794306737e-07  
+ 1.52367114e-07  4.09320510335e-07  
+ 4.85327901752e-08  9.53873553683e-08  4.09320510335e-07  
+ 2.78652167525e-08  4.85327901752e-08  1.52367114e-07  4.12794306737e-07  
+ 25300000000
+ 4.12794306737e-07  
+ 1.52367114e-07  4.09320510335e-07  
+ 4.85327901752e-08  9.53873553683e-08  4.09320510335e-07  
+ 2.78652167525e-08  4.85327901752e-08  1.52367114e-07  4.12794306737e-07  
+ 25400000000
+ 4.12794306737e-07  
+ 1.52367114e-07  4.09320510335e-07  
+ 4.85327901752e-08  9.53873553683e-08  4.09320510335e-07  
+ 2.78652167525e-08  4.85327901752e-08  1.52367114e-07  4.12794306737e-07  
+ 25500000000
+ 4.12794306737e-07  
+ 1.52367114e-07  4.09320510335e-07  
+ 4.85327901752e-08  9.53873553683e-08  4.09320510335e-07  
+ 2.78652167525e-08  4.85327901752e-08  1.52367114e-07  4.12794306737e-07  
+ 25600000000
+ 4.12794306737e-07  
+ 1.52367114e-07  4.09320510335e-07  
+ 4.85327901752e-08  9.53873553683e-08  4.09320510335e-07  
+ 2.78652167525e-08  4.85327901752e-08  1.52367114e-07  4.12794306737e-07  
+ 25700000000
+ 4.12794306737e-07  
+ 1.52367114e-07  4.09320510335e-07  
+ 4.85327901752e-08  9.53873553683e-08  4.09320510335e-07  
+ 2.78652167525e-08  4.85327901752e-08  1.52367114e-07  4.12794306737e-07  
+ 25800000000
+ 4.12794306737e-07  
+ 1.52367114e-07  4.09320510335e-07  
+ 4.85327901752e-08  9.53873553683e-08  4.09320510335e-07  
+ 2.78652167525e-08  4.85327901752e-08  1.52367114e-07  4.12794306737e-07  
+ 25900000000
+ 4.12794306737e-07  
+ 1.52367114e-07  4.09320510335e-07  
+ 4.85327901752e-08  9.53873553683e-08  4.09320510335e-07  
+ 2.78652167525e-08  4.85327901752e-08  1.52367114e-07  4.12794306737e-07  
+ 26000000000
+ 4.12794306737e-07  
+ 1.52367114e-07  4.09320510335e-07  
+ 4.85327901752e-08  9.53873553683e-08  4.09320510335e-07  
+ 2.78652167525e-08  4.85327901752e-08  1.52367114e-07  4.12794306737e-07  
+ 26100000000
+ 4.12794306737e-07  
+ 1.52367114e-07  4.09320510335e-07  
+ 4.85327901752e-08  9.53873553683e-08  4.09320510335e-07  
+ 2.78652167525e-08  4.85327901752e-08  1.52367114e-07  4.12794306737e-07  
+ 26200000000
+ 4.12794306737e-07  
+ 1.52367114e-07  4.09320510335e-07  
+ 4.85327901752e-08  9.53873553683e-08  4.09320510335e-07  
+ 2.78652167525e-08  4.85327901752e-08  1.52367114e-07  4.12794306737e-07  
+ 26300000000
+ 4.12794306737e-07  
+ 1.52367114e-07  4.09320510335e-07  
+ 4.85327901752e-08  9.53873553683e-08  4.09320510335e-07  
+ 2.78652167525e-08  4.85327901752e-08  1.52367114e-07  4.12794306737e-07  
+ 26400000000
+ 4.12794306737e-07  
+ 1.52367114e-07  4.09320510335e-07  
+ 4.85327901752e-08  9.53873553683e-08  4.09320510335e-07  
+ 2.78652167525e-08  4.85327901752e-08  1.52367114e-07  4.12794306737e-07  
+ 26500000000
+ 4.12794306737e-07  
+ 1.52367114e-07  4.09320510335e-07  
+ 4.85327901752e-08  9.53873553683e-08  4.09320510335e-07  
+ 2.78652167525e-08  4.85327901752e-08  1.52367114e-07  4.12794306737e-07  
+ 26600000000
+ 4.12794306737e-07  
+ 1.52367114e-07  4.09320510335e-07  
+ 4.85327901752e-08  9.53873553683e-08  4.09320510335e-07  
+ 2.78652167525e-08  4.85327901752e-08  1.52367114e-07  4.12794306737e-07  
+ 26700000000
+ 4.12794306737e-07  
+ 1.52367114e-07  4.09320510335e-07  
+ 4.85327901752e-08  9.53873553683e-08  4.09320510335e-07  
+ 2.78652167525e-08  4.85327901752e-08  1.52367114e-07  4.12794306737e-07  
+ 26800000000
+ 4.12794306737e-07  
+ 1.52367114e-07  4.09320510335e-07  
+ 4.85327901752e-08  9.53873553683e-08  4.09320510335e-07  
+ 2.78652167525e-08  4.85327901752e-08  1.52367114e-07  4.12794306737e-07  
+ 26900000000
+ 4.12794306737e-07  
+ 1.52367114e-07  4.09320510335e-07  
+ 4.85327901752e-08  9.53873553683e-08  4.09320510335e-07  
+ 2.78652167525e-08  4.85327901752e-08  1.52367114e-07  4.12794306737e-07  
+ 27000000000
+ 4.12794306737e-07  
+ 1.52367114e-07  4.09320510335e-07  
+ 4.85327901752e-08  9.53873553683e-08  4.09320510335e-07  
+ 2.78652167525e-08  4.85327901752e-08  1.52367114e-07  4.12794306737e-07  
+ 27100000000
+ 4.12794306737e-07  
+ 1.52367114e-07  4.09320510335e-07  
+ 4.85327901752e-08  9.53873553683e-08  4.09320510335e-07  
+ 2.78652167525e-08  4.85327901752e-08  1.52367114e-07  4.12794306737e-07  
+ 27200000000
+ 4.12794306737e-07  
+ 1.52367114e-07  4.09320510335e-07  
+ 4.85327901752e-08  9.53873553683e-08  4.09320510335e-07  
+ 2.78652167525e-08  4.85327901752e-08  1.52367114e-07  4.12794306737e-07  
+ 27300000000
+ 4.12794306737e-07  
+ 1.52367114e-07  4.09320510335e-07  
+ 4.85327901752e-08  9.53873553683e-08  4.09320510335e-07  
+ 2.78652167525e-08  4.85327901752e-08  1.52367114e-07  4.12794306737e-07  
+ 27400000000
+ 4.12794306737e-07  
+ 1.52367114e-07  4.09320510335e-07  
+ 4.85327901752e-08  9.53873553683e-08  4.09320510335e-07  
+ 2.78652167525e-08  4.85327901752e-08  1.52367114e-07  4.12794306737e-07  
+ 27500000000
+ 4.12794306737e-07  
+ 1.52367114e-07  4.09320510335e-07  
+ 4.85327901752e-08  9.53873553683e-08  4.09320510335e-07  
+ 2.78652167525e-08  4.85327901752e-08  1.52367114e-07  4.12794306737e-07  
+ 27600000000
+ 4.12794306737e-07  
+ 1.52367114e-07  4.09320510335e-07  
+ 4.85327901752e-08  9.53873553683e-08  4.09320510335e-07  
+ 2.78652167525e-08  4.85327901752e-08  1.52367114e-07  4.12794306737e-07  
+ 27700000000
+ 4.12794306737e-07  
+ 1.52367114e-07  4.09320510335e-07  
+ 4.85327901752e-08  9.53873553683e-08  4.09320510335e-07  
+ 2.78652167525e-08  4.85327901752e-08  1.52367114e-07  4.12794306737e-07  
+ 27800000000
+ 4.12794306737e-07  
+ 1.52367114e-07  4.09320510335e-07  
+ 4.85327901752e-08  9.53873553683e-08  4.09320510335e-07  
+ 2.78652167525e-08  4.85327901752e-08  1.52367114e-07  4.12794306737e-07  
+ 27900000000
+ 4.12794306737e-07  
+ 1.52367114e-07  4.09320510335e-07  
+ 4.85327901752e-08  9.53873553683e-08  4.09320510335e-07  
+ 2.78652167525e-08  4.85327901752e-08  1.52367114e-07  4.12794306737e-07  
+ 28000000000
+ 4.12794306737e-07  
+ 1.52367114e-07  4.09320510335e-07  
+ 4.85327901752e-08  9.53873553683e-08  4.09320510335e-07  
+ 2.78652167525e-08  4.85327901752e-08  1.52367114e-07  4.12794306737e-07  
+ 28100000000
+ 4.12794306737e-07  
+ 1.52367114e-07  4.09320510335e-07  
+ 4.85327901752e-08  9.53873553683e-08  4.09320510335e-07  
+ 2.78652167525e-08  4.85327901752e-08  1.52367114e-07  4.12794306737e-07  
+ 28200000000
+ 4.12794306737e-07  
+ 1.52367114e-07  4.09320510335e-07  
+ 4.85327901752e-08  9.53873553683e-08  4.09320510335e-07  
+ 2.78652167525e-08  4.85327901752e-08  1.52367114e-07  4.12794306737e-07  
+ 28300000000
+ 4.12794306737e-07  
+ 1.52367114e-07  4.09320510335e-07  
+ 4.85327901752e-08  9.53873553683e-08  4.09320510335e-07  
+ 2.78652167525e-08  4.85327901752e-08  1.52367114e-07  4.12794306737e-07  
+ 28400000000
+ 4.12794306737e-07  
+ 1.52367114e-07  4.09320510335e-07  
+ 4.85327901752e-08  9.53873553683e-08  4.09320510335e-07  
+ 2.78652167525e-08  4.85327901752e-08  1.52367114e-07  4.12794306737e-07  
+ 28500000000
+ 4.12794306737e-07  
+ 1.52367114e-07  4.09320510335e-07  
+ 4.85327901752e-08  9.53873553683e-08  4.09320510335e-07  
+ 2.78652167525e-08  4.85327901752e-08  1.52367114e-07  4.12794306737e-07  
+ 28600000000
+ 4.12794306737e-07  
+ 1.52367114e-07  4.09320510335e-07  
+ 4.85327901752e-08  9.53873553683e-08  4.09320510335e-07  
+ 2.78652167525e-08  4.85327901752e-08  1.52367114e-07  4.12794306737e-07  
+ 28700000000
+ 4.12794306737e-07  
+ 1.52367114e-07  4.09320510335e-07  
+ 4.85327901752e-08  9.53873553683e-08  4.09320510335e-07  
+ 2.78652167525e-08  4.85327901752e-08  1.52367114e-07  4.12794306737e-07  
+ 28800000000
+ 4.12794306737e-07  
+ 1.52367114e-07  4.09320510335e-07  
+ 4.85327901752e-08  9.53873553683e-08  4.09320510335e-07  
+ 2.78652167525e-08  4.85327901752e-08  1.52367114e-07  4.12794306737e-07  
+ 28900000000
+ 4.12794306737e-07  
+ 1.52367114e-07  4.09320510335e-07  
+ 4.85327901752e-08  9.53873553683e-08  4.09320510335e-07  
+ 2.78652167525e-08  4.85327901752e-08  1.52367114e-07  4.12794306737e-07  
+ 29000000000
+ 4.12794306737e-07  
+ 1.52367114e-07  4.09320510335e-07  
+ 4.85327901752e-08  9.53873553683e-08  4.09320510335e-07  
+ 2.78652167525e-08  4.85327901752e-08  1.52367114e-07  4.12794306737e-07  
+ 29100000000
+ 4.12794306737e-07  
+ 1.52367114e-07  4.09320510335e-07  
+ 4.85327901752e-08  9.53873553683e-08  4.09320510335e-07  
+ 2.78652167525e-08  4.85327901752e-08  1.52367114e-07  4.12794306737e-07  
+ 29200000000
+ 4.12794306737e-07  
+ 1.52367114e-07  4.09320510335e-07  
+ 4.85327901752e-08  9.53873553683e-08  4.09320510335e-07  
+ 2.78652167525e-08  4.85327901752e-08  1.52367114e-07  4.12794306737e-07  
+ 29300000000
+ 4.12794306737e-07  
+ 1.52367114e-07  4.09320510335e-07  
+ 4.85327901752e-08  9.53873553683e-08  4.09320510335e-07  
+ 2.78652167525e-08  4.85327901752e-08  1.52367114e-07  4.12794306737e-07  
+ 29400000000
+ 4.12794306737e-07  
+ 1.52367114e-07  4.09320510335e-07  
+ 4.85327901752e-08  9.53873553683e-08  4.09320510335e-07  
+ 2.78652167525e-08  4.85327901752e-08  1.52367114e-07  4.12794306737e-07  
+ 29500000000
+ 4.12794306737e-07  
+ 1.52367114e-07  4.09320510335e-07  
+ 4.85327901752e-08  9.53873553683e-08  4.09320510335e-07  
+ 2.78652167525e-08  4.85327901752e-08  1.52367114e-07  4.12794306737e-07  
+ 29600000000
+ 4.12794306737e-07  
+ 1.52367114e-07  4.09320510335e-07  
+ 4.85327901752e-08  9.53873553683e-08  4.09320510335e-07  
+ 2.78652167525e-08  4.85327901752e-08  1.52367114e-07  4.12794306737e-07  
+ 29700000000
+ 4.12794306737e-07  
+ 1.52367114e-07  4.09320510335e-07  
+ 4.85327901752e-08  9.53873553683e-08  4.09320510335e-07  
+ 2.78652167525e-08  4.85327901752e-08  1.52367114e-07  4.12794306737e-07  
+ 29800000000
+ 4.12794306737e-07  
+ 1.52367114e-07  4.09320510335e-07  
+ 4.85327901752e-08  9.53873553683e-08  4.09320510335e-07  
+ 2.78652167525e-08  4.85327901752e-08  1.52367114e-07  4.12794306737e-07  
+ 29900000000
+ 4.12794306737e-07  
+ 1.52367114e-07  4.09320510335e-07  
+ 4.85327901752e-08  9.53873553683e-08  4.09320510335e-07  
+ 2.78652167525e-08  4.85327901752e-08  1.52367114e-07  4.12794306737e-07  
+ 30000000000
+ 4.12794306737e-07  
+ 1.52367114e-07  4.09320510335e-07  
+ 4.85327901752e-08  9.53873553683e-08  4.09320510335e-07  
+ 2.78652167525e-08  4.85327901752e-08  1.52367114e-07  4.12794306737e-07  
+ 30100000000
+ 4.12794306737e-07  
+ 1.52367114e-07  4.09320510335e-07  
+ 4.85327901752e-08  9.53873553683e-08  4.09320510335e-07  
+ 2.78652167525e-08  4.85327901752e-08  1.52367114e-07  4.12794306737e-07  
+ 30200000000
+ 4.12794306737e-07  
+ 1.52367114e-07  4.09320510335e-07  
+ 4.85327901752e-08  9.53873553683e-08  4.09320510335e-07  
+ 2.78652167525e-08  4.85327901752e-08  1.52367114e-07  4.12794306737e-07  
+ 30300000000
+ 4.12794306737e-07  
+ 1.52367114e-07  4.09320510335e-07  
+ 4.85327901752e-08  9.53873553683e-08  4.09320510335e-07  
+ 2.78652167525e-08  4.85327901752e-08  1.52367114e-07  4.12794306737e-07  
+ 30400000000
+ 4.12794306737e-07  
+ 1.52367114e-07  4.09320510335e-07  
+ 4.85327901752e-08  9.53873553683e-08  4.09320510335e-07  
+ 2.78652167525e-08  4.85327901752e-08  1.52367114e-07  4.12794306737e-07  
+ 30500000000
+ 4.12794306737e-07  
+ 1.52367114e-07  4.09320510335e-07  
+ 4.85327901752e-08  9.53873553683e-08  4.09320510335e-07  
+ 2.78652167525e-08  4.85327901752e-08  1.52367114e-07  4.12794306737e-07  
+ 30600000000
+ 4.12794306737e-07  
+ 1.52367114e-07  4.09320510335e-07  
+ 4.85327901752e-08  9.53873553683e-08  4.09320510335e-07  
+ 2.78652167525e-08  4.85327901752e-08  1.52367114e-07  4.12794306737e-07  
+ 30700000000
+ 4.12794306737e-07  
+ 1.52367114e-07  4.09320510335e-07  
+ 4.85327901752e-08  9.53873553683e-08  4.09320510335e-07  
+ 2.78652167525e-08  4.85327901752e-08  1.52367114e-07  4.12794306737e-07  
+ 30800000000
+ 4.12794306737e-07  
+ 1.52367114e-07  4.09320510335e-07  
+ 4.85327901752e-08  9.53873553683e-08  4.09320510335e-07  
+ 2.78652167525e-08  4.85327901752e-08  1.52367114e-07  4.12794306737e-07  
+ 30900000000
+ 4.12794306737e-07  
+ 1.52367114e-07  4.09320510335e-07  
+ 4.85327901752e-08  9.53873553683e-08  4.09320510335e-07  
+ 2.78652167525e-08  4.85327901752e-08  1.52367114e-07  4.12794306737e-07  
+ 31000000000
+ 4.12794306737e-07  
+ 1.52367114e-07  4.09320510335e-07  
+ 4.85327901752e-08  9.53873553683e-08  4.09320510335e-07  
+ 2.78652167525e-08  4.85327901752e-08  1.52367114e-07  4.12794306737e-07  
+ 31100000000
+ 4.12794306737e-07  
+ 1.52367114e-07  4.09320510335e-07  
+ 4.85327901752e-08  9.53873553683e-08  4.09320510335e-07  
+ 2.78652167525e-08  4.85327901752e-08  1.52367114e-07  4.12794306737e-07  
+ 31200000000
+ 4.12794306737e-07  
+ 1.52367114e-07  4.09320510335e-07  
+ 4.85327901752e-08  9.53873553683e-08  4.09320510335e-07  
+ 2.78652167525e-08  4.85327901752e-08  1.52367114e-07  4.12794306737e-07  
+ 31300000000
+ 4.12794306737e-07  
+ 1.52367114e-07  4.09320510335e-07  
+ 4.85327901752e-08  9.53873553683e-08  4.09320510335e-07  
+ 2.78652167525e-08  4.85327901752e-08  1.52367114e-07  4.12794306737e-07  
+ 31400000000
+ 4.12794306737e-07  
+ 1.52367114e-07  4.09320510335e-07  
+ 4.85327901752e-08  9.53873553683e-08  4.09320510335e-07  
+ 2.78652167525e-08  4.85327901752e-08  1.52367114e-07  4.12794306737e-07  
+ 31500000000
+ 4.12794306737e-07  
+ 1.52367114e-07  4.09320510335e-07  
+ 4.85327901752e-08  9.53873553683e-08  4.09320510335e-07  
+ 2.78652167525e-08  4.85327901752e-08  1.52367114e-07  4.12794306737e-07  
+ 31600000000
+ 4.12794306737e-07  
+ 1.52367114e-07  4.09320510335e-07  
+ 4.85327901752e-08  9.53873553683e-08  4.09320510335e-07  
+ 2.78652167525e-08  4.85327901752e-08  1.52367114e-07  4.12794306737e-07  
+ 31700000000
+ 4.12794306737e-07  
+ 1.52367114e-07  4.09320510335e-07  
+ 4.85327901752e-08  9.53873553683e-08  4.09320510335e-07  
+ 2.78652167525e-08  4.85327901752e-08  1.52367114e-07  4.12794306737e-07  
+ 31800000000
+ 4.12794306737e-07  
+ 1.52367114e-07  4.09320510335e-07  
+ 4.85327901752e-08  9.53873553683e-08  4.09320510335e-07  
+ 2.78652167525e-08  4.85327901752e-08  1.52367114e-07  4.12794306737e-07  
+ 31900000000
+ 4.12794306737e-07  
+ 1.52367114e-07  4.09320510335e-07  
+ 4.85327901752e-08  9.53873553683e-08  4.09320510335e-07  
+ 2.78652167525e-08  4.85327901752e-08  1.52367114e-07  4.12794306737e-07  
+ 32000000000
+ 4.12794306737e-07  
+ 1.52367114e-07  4.09320510335e-07  
+ 4.85327901752e-08  9.53873553683e-08  4.09320510335e-07  
+ 2.78652167525e-08  4.85327901752e-08  1.52367114e-07  4.12794306737e-07  
+ 32100000000
+ 4.12794306737e-07  
+ 1.52367114e-07  4.09320510335e-07  
+ 4.85327901752e-08  9.53873553683e-08  4.09320510335e-07  
+ 2.78652167525e-08  4.85327901752e-08  1.52367114e-07  4.12794306737e-07  
+ 32200000000
+ 4.12794306737e-07  
+ 1.52367114e-07  4.09320510335e-07  
+ 4.85327901752e-08  9.53873553683e-08  4.09320510335e-07  
+ 2.78652167525e-08  4.85327901752e-08  1.52367114e-07  4.12794306737e-07  
+ 32300000000
+ 4.12794306737e-07  
+ 1.52367114e-07  4.09320510335e-07  
+ 4.85327901752e-08  9.53873553683e-08  4.09320510335e-07  
+ 2.78652167525e-08  4.85327901752e-08  1.52367114e-07  4.12794306737e-07  
+ 32400000000
+ 4.12794306737e-07  
+ 1.52367114e-07  4.09320510335e-07  
+ 4.85327901752e-08  9.53873553683e-08  4.09320510335e-07  
+ 2.78652167525e-08  4.85327901752e-08  1.52367114e-07  4.12794306737e-07  
+ 32500000000
+ 4.12794306737e-07  
+ 1.52367114e-07  4.09320510335e-07  
+ 4.85327901752e-08  9.53873553683e-08  4.09320510335e-07  
+ 2.78652167525e-08  4.85327901752e-08  1.52367114e-07  4.12794306737e-07  
+ 32600000000
+ 4.12794306737e-07  
+ 1.52367114e-07  4.09320510335e-07  
+ 4.85327901752e-08  9.53873553683e-08  4.09320510335e-07  
+ 2.78652167525e-08  4.85327901752e-08  1.52367114e-07  4.12794306737e-07  
+ 32700000000
+ 4.12794306737e-07  
+ 1.52367114e-07  4.09320510335e-07  
+ 4.85327901752e-08  9.53873553683e-08  4.09320510335e-07  
+ 2.78652167525e-08  4.85327901752e-08  1.52367114e-07  4.12794306737e-07  
+ 32800000000
+ 4.12794306737e-07  
+ 1.52367114e-07  4.09320510335e-07  
+ 4.85327901752e-08  9.53873553683e-08  4.09320510335e-07  
+ 2.78652167525e-08  4.85327901752e-08  1.52367114e-07  4.12794306737e-07  
+ 32900000000
+ 4.12794306737e-07  
+ 1.52367114e-07  4.09320510335e-07  
+ 4.85327901752e-08  9.53873553683e-08  4.09320510335e-07  
+ 2.78652167525e-08  4.85327901752e-08  1.52367114e-07  4.12794306737e-07  
+ 33000000000
+ 4.12794306737e-07  
+ 1.52367114e-07  4.09320510335e-07  
+ 4.85327901752e-08  9.53873553683e-08  4.09320510335e-07  
+ 2.78652167525e-08  4.85327901752e-08  1.52367114e-07  4.12794306737e-07  
+ 33100000000
+ 4.12794306737e-07  
+ 1.52367114e-07  4.09320510335e-07  
+ 4.85327901752e-08  9.53873553683e-08  4.09320510335e-07  
+ 2.78652167525e-08  4.85327901752e-08  1.52367114e-07  4.12794306737e-07  
+ 33200000000
+ 4.12794306737e-07  
+ 1.52367114e-07  4.09320510335e-07  
+ 4.85327901752e-08  9.53873553683e-08  4.09320510335e-07  
+ 2.78652167525e-08  4.85327901752e-08  1.52367114e-07  4.12794306737e-07  
+ 33300000000
+ 4.12794306737e-07  
+ 1.52367114e-07  4.09320510335e-07  
+ 4.85327901752e-08  9.53873553683e-08  4.09320510335e-07  
+ 2.78652167525e-08  4.85327901752e-08  1.52367114e-07  4.12794306737e-07  
+ 33400000000
+ 4.12794306737e-07  
+ 1.52367114e-07  4.09320510335e-07  
+ 4.85327901752e-08  9.53873553683e-08  4.09320510335e-07  
+ 2.78652167525e-08  4.85327901752e-08  1.52367114e-07  4.12794306737e-07  
+ 33500000000
+ 4.12794306737e-07  
+ 1.52367114e-07  4.09320510335e-07  
+ 4.85327901752e-08  9.53873553683e-08  4.09320510335e-07  
+ 2.78652167525e-08  4.85327901752e-08  1.52367114e-07  4.12794306737e-07  
+ 33600000000
+ 4.12794306737e-07  
+ 1.52367114e-07  4.09320510335e-07  
+ 4.85327901752e-08  9.53873553683e-08  4.09320510335e-07  
+ 2.78652167525e-08  4.85327901752e-08  1.52367114e-07  4.12794306737e-07  
+ 33700000000
+ 4.12794306737e-07  
+ 1.52367114e-07  4.09320510335e-07  
+ 4.85327901752e-08  9.53873553683e-08  4.09320510335e-07  
+ 2.78652167525e-08  4.85327901752e-08  1.52367114e-07  4.12794306737e-07  
+ 33800000000
+ 4.12794306737e-07  
+ 1.52367114e-07  4.09320510335e-07  
+ 4.85327901752e-08  9.53873553683e-08  4.09320510335e-07  
+ 2.78652167525e-08  4.85327901752e-08  1.52367114e-07  4.12794306737e-07  
+ 33900000000
+ 4.12794306737e-07  
+ 1.52367114e-07  4.09320510335e-07  
+ 4.85327901752e-08  9.53873553683e-08  4.09320510335e-07  
+ 2.78652167525e-08  4.85327901752e-08  1.52367114e-07  4.12794306737e-07  
+ 34000000000
+ 4.12794306737e-07  
+ 1.52367114e-07  4.09320510335e-07  
+ 4.85327901752e-08  9.53873553683e-08  4.09320510335e-07  
+ 2.78652167525e-08  4.85327901752e-08  1.52367114e-07  4.12794306737e-07  
+ 34100000000
+ 4.12794306737e-07  
+ 1.52367114e-07  4.09320510335e-07  
+ 4.85327901752e-08  9.53873553683e-08  4.09320510335e-07  
+ 2.78652167525e-08  4.85327901752e-08  1.52367114e-07  4.12794306737e-07  
+ 34200000000
+ 4.12794306737e-07  
+ 1.52367114e-07  4.09320510335e-07  
+ 4.85327901752e-08  9.53873553683e-08  4.09320510335e-07  
+ 2.78652167525e-08  4.85327901752e-08  1.52367114e-07  4.12794306737e-07  
+ 34300000000
+ 4.12794306737e-07  
+ 1.52367114e-07  4.09320510335e-07  
+ 4.85327901752e-08  9.53873553683e-08  4.09320510335e-07  
+ 2.78652167525e-08  4.85327901752e-08  1.52367114e-07  4.12794306737e-07  
+ 34400000000
+ 4.12794306737e-07  
+ 1.52367114e-07  4.09320510335e-07  
+ 4.85327901752e-08  9.53873553683e-08  4.09320510335e-07  
+ 2.78652167525e-08  4.85327901752e-08  1.52367114e-07  4.12794306737e-07  
+ 34500000000
+ 4.12794306737e-07  
+ 1.52367114e-07  4.09320510335e-07  
+ 4.85327901752e-08  9.53873553683e-08  4.09320510335e-07  
+ 2.78652167525e-08  4.85327901752e-08  1.52367114e-07  4.12794306737e-07  
+ 34600000000
+ 4.12794306737e-07  
+ 1.52367114e-07  4.09320510335e-07  
+ 4.85327901752e-08  9.53873553683e-08  4.09320510335e-07  
+ 2.78652167525e-08  4.85327901752e-08  1.52367114e-07  4.12794306737e-07  
+ 34700000000
+ 4.12794306737e-07  
+ 1.52367114e-07  4.09320510335e-07  
+ 4.85327901752e-08  9.53873553683e-08  4.09320510335e-07  
+ 2.78652167525e-08  4.85327901752e-08  1.52367114e-07  4.12794306737e-07  
+ 34800000000
+ 4.12794306737e-07  
+ 1.52367114e-07  4.09320510335e-07  
+ 4.85327901752e-08  9.53873553683e-08  4.09320510335e-07  
+ 2.78652167525e-08  4.85327901752e-08  1.52367114e-07  4.12794306737e-07  
+ 34900000000
+ 4.12794306737e-07  
+ 1.52367114e-07  4.09320510335e-07  
+ 4.85327901752e-08  9.53873553683e-08  4.09320510335e-07  
+ 2.78652167525e-08  4.85327901752e-08  1.52367114e-07  4.12794306737e-07  
+ 35000000000
+ 4.12794306737e-07  
+ 1.52367114e-07  4.09320510335e-07  
+ 4.85327901752e-08  9.53873553683e-08  4.09320510335e-07  
+ 2.78652167525e-08  4.85327901752e-08  1.52367114e-07  4.12794306737e-07  
+ 35100000000
+ 4.12794306737e-07  
+ 1.52367114e-07  4.09320510335e-07  
+ 4.85327901752e-08  9.53873553683e-08  4.09320510335e-07  
+ 2.78652167525e-08  4.85327901752e-08  1.52367114e-07  4.12794306737e-07  
+ 35200000000
+ 4.12794306737e-07  
+ 1.52367114e-07  4.09320510335e-07  
+ 4.85327901752e-08  9.53873553683e-08  4.09320510335e-07  
+ 2.78652167525e-08  4.85327901752e-08  1.52367114e-07  4.12794306737e-07  
+ 35300000000
+ 4.12794306737e-07  
+ 1.52367114e-07  4.09320510335e-07  
+ 4.85327901752e-08  9.53873553683e-08  4.09320510335e-07  
+ 2.78652167525e-08  4.85327901752e-08  1.52367114e-07  4.12794306737e-07  
+ 35400000000
+ 4.12794306737e-07  
+ 1.52367114e-07  4.09320510335e-07  
+ 4.85327901752e-08  9.53873553683e-08  4.09320510335e-07  
+ 2.78652167525e-08  4.85327901752e-08  1.52367114e-07  4.12794306737e-07  
+ 35500000000
+ 4.12794306737e-07  
+ 1.52367114e-07  4.09320510335e-07  
+ 4.85327901752e-08  9.53873553683e-08  4.09320510335e-07  
+ 2.78652167525e-08  4.85327901752e-08  1.52367114e-07  4.12794306737e-07  
+ 35600000000
+ 4.12794306737e-07  
+ 1.52367114e-07  4.09320510335e-07  
+ 4.85327901752e-08  9.53873553683e-08  4.09320510335e-07  
+ 2.78652167525e-08  4.85327901752e-08  1.52367114e-07  4.12794306737e-07  
+ 35700000000
+ 4.12794306737e-07  
+ 1.52367114e-07  4.09320510335e-07  
+ 4.85327901752e-08  9.53873553683e-08  4.09320510335e-07  
+ 2.78652167525e-08  4.85327901752e-08  1.52367114e-07  4.12794306737e-07  
+ 35800000000
+ 4.12794306737e-07  
+ 1.52367114e-07  4.09320510335e-07  
+ 4.85327901752e-08  9.53873553683e-08  4.09320510335e-07  
+ 2.78652167525e-08  4.85327901752e-08  1.52367114e-07  4.12794306737e-07  
+ 35900000000
+ 4.12794306737e-07  
+ 1.52367114e-07  4.09320510335e-07  
+ 4.85327901752e-08  9.53873553683e-08  4.09320510335e-07  
+ 2.78652167525e-08  4.85327901752e-08  1.52367114e-07  4.12794306737e-07  
+ 36000000000
+ 4.12794306737e-07  
+ 1.52367114e-07  4.09320510335e-07  
+ 4.85327901752e-08  9.53873553683e-08  4.09320510335e-07  
+ 2.78652167525e-08  4.85327901752e-08  1.52367114e-07  4.12794306737e-07  
+ 36100000000
+ 4.12794306737e-07  
+ 1.52367114e-07  4.09320510335e-07  
+ 4.85327901752e-08  9.53873553683e-08  4.09320510335e-07  
+ 2.78652167525e-08  4.85327901752e-08  1.52367114e-07  4.12794306737e-07  
+ 36200000000
+ 4.12794306737e-07  
+ 1.52367114e-07  4.09320510335e-07  
+ 4.85327901752e-08  9.53873553683e-08  4.09320510335e-07  
+ 2.78652167525e-08  4.85327901752e-08  1.52367114e-07  4.12794306737e-07  
+ 36300000000
+ 4.12794306737e-07  
+ 1.52367114e-07  4.09320510335e-07  
+ 4.85327901752e-08  9.53873553683e-08  4.09320510335e-07  
+ 2.78652167525e-08  4.85327901752e-08  1.52367114e-07  4.12794306737e-07  
+ 36400000000
+ 4.12794306737e-07  
+ 1.52367114e-07  4.09320510335e-07  
+ 4.85327901752e-08  9.53873553683e-08  4.09320510335e-07  
+ 2.78652167525e-08  4.85327901752e-08  1.52367114e-07  4.12794306737e-07  
+ 36500000000
+ 4.12794306737e-07  
+ 1.52367114e-07  4.09320510335e-07  
+ 4.85327901752e-08  9.53873553683e-08  4.09320510335e-07  
+ 2.78652167525e-08  4.85327901752e-08  1.52367114e-07  4.12794306737e-07  
+ 36600000000
+ 4.12794306737e-07  
+ 1.52367114e-07  4.09320510335e-07  
+ 4.85327901752e-08  9.53873553683e-08  4.09320510335e-07  
+ 2.78652167525e-08  4.85327901752e-08  1.52367114e-07  4.12794306737e-07  
+ 36700000000
+ 4.12794306737e-07  
+ 1.52367114e-07  4.09320510335e-07  
+ 4.85327901752e-08  9.53873553683e-08  4.09320510335e-07  
+ 2.78652167525e-08  4.85327901752e-08  1.52367114e-07  4.12794306737e-07  
+ 36800000000
+ 4.12794306737e-07  
+ 1.52367114e-07  4.09320510335e-07  
+ 4.85327901752e-08  9.53873553683e-08  4.09320510335e-07  
+ 2.78652167525e-08  4.85327901752e-08  1.52367114e-07  4.12794306737e-07  
+ 36900000000
+ 4.12794306737e-07  
+ 1.52367114e-07  4.09320510335e-07  
+ 4.85327901752e-08  9.53873553683e-08  4.09320510335e-07  
+ 2.78652167525e-08  4.85327901752e-08  1.52367114e-07  4.12794306737e-07  
+ 37000000000
+ 4.12794306737e-07  
+ 1.52367114e-07  4.09320510335e-07  
+ 4.85327901752e-08  9.53873553683e-08  4.09320510335e-07  
+ 2.78652167525e-08  4.85327901752e-08  1.52367114e-07  4.12794306737e-07  
+ 37100000000
+ 4.12794306737e-07  
+ 1.52367114e-07  4.09320510335e-07  
+ 4.85327901752e-08  9.53873553683e-08  4.09320510335e-07  
+ 2.78652167525e-08  4.85327901752e-08  1.52367114e-07  4.12794306737e-07  
+ 37200000000
+ 4.12794306737e-07  
+ 1.52367114e-07  4.09320510335e-07  
+ 4.85327901752e-08  9.53873553683e-08  4.09320510335e-07  
+ 2.78652167525e-08  4.85327901752e-08  1.52367114e-07  4.12794306737e-07  
+ 37300000000
+ 4.12794306737e-07  
+ 1.52367114e-07  4.09320510335e-07  
+ 4.85327901752e-08  9.53873553683e-08  4.09320510335e-07  
+ 2.78652167525e-08  4.85327901752e-08  1.52367114e-07  4.12794306737e-07  
+ 37400000000
+ 4.12794306737e-07  
+ 1.52367114e-07  4.09320510335e-07  
+ 4.85327901752e-08  9.53873553683e-08  4.09320510335e-07  
+ 2.78652167525e-08  4.85327901752e-08  1.52367114e-07  4.12794306737e-07  
+ 37500000000
+ 4.12794306737e-07  
+ 1.52367114e-07  4.09320510335e-07  
+ 4.85327901752e-08  9.53873553683e-08  4.09320510335e-07  
+ 2.78652167525e-08  4.85327901752e-08  1.52367114e-07  4.12794306737e-07  
+ 37600000000
+ 4.12794306737e-07  
+ 1.52367114e-07  4.09320510335e-07  
+ 4.85327901752e-08  9.53873553683e-08  4.09320510335e-07  
+ 2.78652167525e-08  4.85327901752e-08  1.52367114e-07  4.12794306737e-07  
+ 37700000000
+ 4.12794306737e-07  
+ 1.52367114e-07  4.09320510335e-07  
+ 4.85327901752e-08  9.53873553683e-08  4.09320510335e-07  
[...]
+ 0.241540821724  
+ -0.0437146510706  0.243020554566  
+ -0.000330606985241  -0.0187901694919  0.243020554566  
+ -0.000128733006799  -0.000330606985241  -0.0437146510706  0.241540821724  
+ 60400000000
+ 0.241925447605  
+ -0.0437842667975  0.243407527508  
+ -0.000331135496027  -0.0188200951679  0.243407527508  
+ -0.000128942833515  -0.000331135496027  -0.0437842667975  0.241925447605  
+ 60500000000
+ 0.242310020869  
+ -0.0438538730108  0.243794447495  
+ -0.000331663938402  -0.0188500167585  0.243794447495  
+ -0.000129152640662  -0.000331663938402  -0.0438538730108  0.242310020869  
+ 60600000000
+ 0.242694541518  
+ -0.0439234697107  0.244181314527  
+ -0.000332192312361  -0.0188799342639  0.244181314527  
+ -0.00012936242823  -0.000332192312361  -0.0439234697107  0.242694541518  
+ 60700000000
+ 0.243079009553  
+ -0.0439930568974  0.244568128608  
+ -0.000332720617901  -0.0189098476842  0.244568128608  
+ -0.000129572196206  -0.000332720617901  -0.0439930568974  0.243079009553  
+ 60800000000
+ 0.243463424975  
+ -0.0440626345712  0.244954889736  
+ -0.000333248855018  -0.0189397570194  0.244954889736  
+ -0.000129781944578  -0.000333248855018  -0.0440626345712  0.243463424975  
+ 60900000000
+ 0.243847787786  
+ -0.0441322027322  0.245341597915  
+ -0.000333777023708  -0.0189696622697  0.245341597915  
+ -0.000129991673336  -0.000333777023708  -0.0441322027322  0.243847787786  
+ 61000000000
+ 0.244232097985  
+ -0.0442017613807  0.245728253144  
+ -0.000334305123969  -0.018999563435  0.245728253144  
+ -0.000130201382466  -0.000334305123969  -0.0442017613807  0.244232097985  
+ 61100000000
+ 0.244616355576  
+ -0.0442713105168  0.246114855426  
+ -0.000334833155796  -0.0190294605155  0.246114855426  
+ -0.000130411071958  -0.000334833155796  -0.0442713105168  0.244616355576  
+ 61200000000
+ 0.245000560558  
+ -0.0443408501408  0.246501404762  
+ -0.000335361119186  -0.0190593535113  0.246501404762  
+ -0.000130620741799  -0.000335361119186  -0.0443408501408  0.245000560558  
+ 61300000000
+ 0.245384712933  
+ -0.0444103802528  0.246887901152  
+ -0.000335889014135  -0.0190892424225  0.246887901152  
+ -0.000130830391979  -0.000335889014135  -0.0444103802528  0.245384712933  
+ 61400000000
+ 0.245768812703  
+ -0.0444799008532  0.247274344599  
+ -0.00033641684064  -0.0191191272491  0.247274344599  
+ -0.000131040022485  -0.00033641684064  -0.0444799008532  0.245768812703  
+ 61500000000
+ 0.246152859869  
+ -0.0445494119421  0.247660735103  
+ -0.000336944598697  -0.0191490079912  0.247660735103  
+ -0.000131249633306  -0.000336944598697  -0.0445494119421  0.246152859869  
+ 61600000000
+ 0.246536854431  
+ -0.0446189135196  0.248047072665  
+ -0.000337472288303  -0.0191788846489  0.248047072665  
+ -0.000131459224431  -0.000337472288303  -0.0446189135196  0.246536854431  
+ 61700000000
+ 0.246920796392  
+ -0.0446884055861  0.248433357288  
+ -0.000337999909455  -0.0192087572224  0.248433357288  
+ -0.000131668795847  -0.000337999909455  -0.0446884055861  0.246920796392  
+ 61800000000
+ 0.247304685752  
+ -0.0447578881418  0.248819588972  
+ -0.000338527462148  -0.0192386257116  0.248819588972  
+ -0.000131878347545  -0.000338527462148  -0.0447578881418  0.247304685752  
+ 61900000000
+ 0.247688522512  
+ -0.0448273611868  0.249205767718  
+ -0.00033905494638  -0.0192684901167  0.249205767718  
+ -0.000132087879512  -0.00033905494638  -0.0448273611868  0.247688522512  
+ 62000000000
+ 0.248072306675  
+ -0.0448968247213  0.249591893528  
+ -0.000339582362148  -0.0192983504377  0.249591893528  
+ -0.000132297391737  -0.000339582362148  -0.0448968247213  0.248072306675  
+ 62100000000
+ 0.24845603824  
+ -0.0449662787457  0.249977966403  
+ -0.000340109709447  -0.0193282066748  0.249977966403  
+ -0.000132506884209  -0.000340109709447  -0.0449662787457  0.24845603824  
+ 62200000000
+ 0.24883971721  
+ -0.04503572326  0.250363986345  
+ -0.000340636988275  -0.019358058828  0.250363986345  
+ -0.000132716356916  -0.000340636988275  -0.04503572326  0.24883971721  
+ 62300000000
+ 0.249223343586  
+ -0.0451051582645  0.250749953354  
+ -0.000341164198627  -0.0193879068974  0.250749953354  
+ -0.000132925809848  -0.000341164198627  -0.0451051582645  0.249223343586  
+ 62400000000
+ 0.249606917369  
+ -0.0451745837595  0.251135867432  
+ -0.000341691340502  -0.0194177508832  0.251135867432  
+ -0.000133135242993  -0.000341691340502  -0.0451745837595  0.249606917369  
+ 62500000000
+ 0.249990438559  
+ -0.0452439997451  0.251521728581  
+ -0.000342218413895  -0.0194475907853  0.251521728581  
+ -0.000133344656339  -0.000342218413895  -0.0452439997451  0.249990438559  
+ 62600000000
+ 0.250373907159  
+ -0.0453134062215  0.251907536801  
+ -0.000342745418803  -0.0194774266039  0.251907536801  
+ -0.000133554049877  -0.000342745418803  -0.0453134062215  0.250373907159  
+ 62700000000
+ 0.25075732317  
+ -0.045382803189  0.252293292094  
+ -0.000343272355224  -0.019507258339  0.252293292094  
+ -0.000133763423595  -0.000343272355224  -0.045382803189  0.25075732317  
+ 62800000000
+ 0.251140686593  
+ -0.0454521906478  0.25267899446  
+ -0.000343799223153  -0.0195370859908  0.25267899446  
+ -0.000133972777482  -0.000343799223153  -0.0454521906478  0.251140686593  
+ 62900000000
+ 0.251523997429  
+ -0.0455215685981  0.253064643903  
+ -0.000344326022587  -0.0195669095593  0.253064643903  
+ -0.000134182111526  -0.000344326022587  -0.0455215685981  0.251523997429  
+ 63000000000
+ 0.251907255679  
+ -0.0455909370401  0.253450240422  
+ -0.000344852753524  -0.0195967290447  0.253450240422  
+ -0.000134391425718  -0.000344852753524  -0.0455909370401  0.251907255679  
+ 63100000000
+ 0.252290461345  
+ -0.0456602959741  0.253835784019  
+ -0.00034537941596  -0.019626544447  0.253835784019  
+ -0.000134600720046  -0.00034537941596  -0.0456602959741  0.252290461345  
+ 63200000000
+ 0.252673614429  
+ -0.0457296454002  0.254221274695  
+ -0.000345906009893  -0.0196563557663  0.254221274695  
+ -0.000134809994499  -0.000345906009893  -0.0457296454002  0.252673614429  
+ 63300000000
+ 0.25305671493  
+ -0.0457989853187  0.254606712452  
+ -0.000346432535318  -0.0196861630027  0.254606712452  
+ -0.000135019249066  -0.000346432535318  -0.0457989853187  0.25305671493  
+ 63400000000
+ 0.253439762851  
+ -0.0458683157298  0.254992097291  
+ -0.000346958992232  -0.0197159661562  0.254992097291  
+ -0.000135228483737  -0.000346958992232  -0.0458683157298  0.253439762851  
+ 63500000000
+ 0.253822758193  
+ -0.0459376366337  0.255377429213  
+ -0.000347485380634  -0.019745765227  0.255377429213  
+ -0.000135437698501  -0.000347485380634  -0.0459376366337  0.253822758193  
+ 63600000000
+ 0.254205700958  
+ -0.0460069480307  0.25576270822  
+ -0.000348011700518  -0.0197755602152  0.25576270822  
+ -0.000135646893348  -0.000348011700518  -0.0460069480307  0.254205700958  
+ 63700000000
+ 0.254588591145  
+ -0.0460762499209  0.256147934313  
+ -0.000348537951884  -0.0198053511209  0.256147934313  
+ -0.000135856068265  -0.000348537951884  -0.0460762499209  0.254588591145  
+ 63800000000
+ 0.254971428758  
+ -0.0461455423046  0.256533107493  
+ -0.000349064134726  -0.0198351379441  0.256533107493  
+ -0.000136065223244  -0.000349064134726  -0.0461455423046  0.254971428758  
+ 63900000000
+ 0.255354213796  
+ -0.046214825182  0.256918227761  
+ -0.000349590249043  -0.0198649206849  0.256918227761  
+ -0.000136274358273  -0.000349590249043  -0.046214825182  0.255354213796  
+ 64000000000
+ 0.255736946262  
+ -0.0462840985533  0.257303295119  
+ -0.000350116294832  -0.0198946993434  0.257303295119  
+ -0.000136483473341  -0.000350116294832  -0.0462840985533  0.255736946262  
+ 64100000000
+ 0.256119626157  
+ -0.0463533624187  0.257688309569  
+ -0.000350642272088  -0.0199244739197  0.257688309569  
+ -0.000136692568439  -0.000350642272088  -0.0463533624187  0.256119626157  
+ 64200000000
+ 0.256502253481  
+ -0.0464226167785  0.25807327111  
+ -0.000351168180811  -0.019954244414  0.25807327111  
+ -0.000136901643556  -0.000351168180811  -0.0464226167785  0.256502253481  
+ 64300000000
+ 0.256884828236  
+ -0.046491861633  0.258458179746  
+ -0.000351694020995  -0.0199840108262  0.258458179746  
+ -0.00013711069868  -0.000351694020995  -0.046491861633  0.256884828236  
+ 64400000000
+ 0.257267350425  
+ -0.0465610969822  0.258843035477  
+ -0.000352219792639  -0.0200137731565  0.258843035477  
+ -0.000137319733803  -0.000352219792639  -0.0465610969822  0.257267350425  
+ 64500000000
+ 0.257649820047  
+ -0.0466303228265  0.259227838305  
+ -0.000352745495739  -0.020043531405  0.259227838305  
+ -0.000137528748913  -0.000352745495739  -0.0466303228265  0.257649820047  
+ 64600000000
+ 0.258032237104  
+ -0.046699539166  0.25961258823  
+ -0.000353271130293  -0.0200732855717  0.25961258823  
+ -0.000137737743999  -0.000353271130293  -0.046699539166  0.258032237104  
+ 64700000000
+ 0.258414601597  
+ -0.046768746001  0.259997285254  
+ -0.000353796696298  -0.0201030356568  0.259997285254  
+ -0.000137946719053  -0.000353796696298  -0.046768746001  0.258414601597  
+ 64800000000
+ 0.258796913528  
+ -0.0468379433317  0.260381929379  
+ -0.00035432219375  -0.0201327816604  0.260381929379  
+ -0.000138155674063  -0.00035432219375  -0.0468379433317  0.258796913528  
+ 64900000000
+ 0.259179172899  
+ -0.0469071311584  0.260766520606  
+ -0.000354847622648  -0.0201625235825  0.260766520606  
+ -0.00013836460902  -0.000354847622648  -0.0469071311584  0.259179172899  
+ 65000000000
+ 0.25956137971  
+ -0.0469763094812  0.261151058936  
+ -0.000355372982987  -0.0201922614232  0.261151058936  
+ -0.000138573523912  -0.000355372982987  -0.0469763094812  0.25956137971  
+ 65100000000
+ 0.259943533962  
+ -0.0470454783005  0.26153554437  
+ -0.000355898274766  -0.0202219951826  0.26153554437  
+ -0.00013878241873  -0.000355898274766  -0.0470454783005  0.259943533962  
+ 65200000000
+ 0.260325635658  
+ -0.0471146376163  0.261919976911  
+ -0.000356423497981  -0.0202517248609  0.261919976911  
+ -0.000138991293464  -0.000356423497981  -0.0471146376163  0.260325635658  
+ 65300000000
+ 0.260707684797  
+ -0.047183787429  0.262304356559  
+ -0.00035694865263  -0.0202814504581  0.262304356559  
+ -0.000139200148103  -0.00035694865263  -0.047183787429  0.260707684797  
+ 65400000000
+ 0.261089681383  
+ -0.0472529277388  0.262688683315  
+ -0.00035747373871  -0.0203111719742  0.262688683315  
+ -0.000139408982638  -0.00035747373871  -0.0472529277388  0.261089681383  
+ 65500000000
+ 0.261471625415  
+ -0.0473220585459  0.263072957181  
+ -0.000357998756218  -0.0203408894095  0.263072957181  
+ -0.000139617797058  -0.000357998756218  -0.0473220585459  0.261471625415  
+ 65600000000
+ 0.261853516896  
+ -0.0473911798505  0.263457178158  
+ -0.000358523705151  -0.020370602764  0.263457178158  
+ -0.000139826591354  -0.000358523705151  -0.0473911798505  0.261853516896  
+ 65700000000
+ 0.262235355827  
+ -0.0474602916528  0.263841346249  
+ -0.000359048585507  -0.0204003120377  0.263841346249  
+ -0.000140035365515  -0.000359048585507  -0.0474602916528  0.262235355827  
+ 65800000000
+ 0.262617142208  
+ -0.0475293939532  0.264225461453  
+ -0.000359573397283  -0.0204300172308  0.264225461453  
+ -0.000140244119531  -0.000359573397283  -0.0475293939532  0.262617142208  
+ 65900000000
+ 0.262998876042  
+ -0.0475984867518  0.264609523772  
+ -0.000360098140476  -0.0204597183434  0.264609523772  
+ -0.000140452853393  -0.000360098140476  -0.0475984867518  0.262998876042  
+ 66000000000
+ 0.263380557329  
+ -0.0476675700488  0.264993533209  
+ -0.000360622815084  -0.0204894153756  0.264993533209  
+ -0.000140661567091  -0.000360622815084  -0.0476675700488  0.263380557329  
+ 66100000000
+ 0.263762186072  
+ -0.0477366438446  0.265377489763  
+ -0.000361147421104  -0.0205191083274  0.265377489763  
+ -0.000140870260615  -0.000361147421104  -0.0477366438446  0.263762186072  
+ 66200000000
+ 0.264143762271  
+ -0.0478057081392  0.265761393437  
+ -0.000361671958533  -0.020548797199  0.265761393437  
+ -0.000141078933955  -0.000361671958533  -0.0478057081392  0.264143762271  
+ 66300000000
+ 0.264525285927  
+ -0.047874762933  0.266145244232  
+ -0.000362196427368  -0.0205784819904  0.266145244232  
+ -0.000141287587101  -0.000362196427368  -0.047874762933  0.264525285927  
+ 66400000000
+ 0.264906757043  
+ -0.0479438082262  0.266529042149  
+ -0.000362720827608  -0.0206081627017  0.266529042149  
+ -0.000141496220043  -0.000362720827608  -0.0479438082262  0.264906757043  
+ 66500000000
+ 0.265288175618  
+ -0.0480128440189  0.26691278719  
+ -0.000363245159249  -0.0206378393331  0.26691278719  
+ -0.000141704832772  -0.000363245159249  -0.0480128440189  0.265288175618  
+ 66600000000
+ 0.265669541656  
+ -0.0480818703116  0.267296479356  
+ -0.000363769422289  -0.0206675118847  0.267296479356  
+ -0.000141913425278  -0.000363769422289  -0.0480818703116  0.265669541656  
+ 66700000000
+ 0.266050855157  
+ -0.0481508871043  0.267680118648  
+ -0.000364293616725  -0.0206971803564  0.267680118648  
+ -0.000142121997552  -0.000364293616725  -0.0481508871043  0.266050855157  
+ 66800000000
+ 0.266432116122  
+ -0.0482198943973  0.268063705068  
+ -0.000364817742555  -0.0207268447485  0.268063705068  
+ -0.000142330549584  -0.000364817742555  -0.0482198943973  0.266432116122  
+ 66900000000
+ 0.266813324553  
+ -0.0482888921909  0.268447238617  
+ -0.000365341799776  -0.020756505061  0.268447238617  
+ -0.000142539081364  -0.000365341799776  -0.0482888921909  0.266813324553  
+ 67000000000
+ 0.267194480451  
+ -0.0483578804852  0.268830719296  
+ -0.000365865788386  -0.020786161294  0.268830719296  
+ -0.000142747592882  -0.000365865788386  -0.0483578804852  0.267194480451  
+ 67100000000
+ 0.267575583817  
+ -0.0484268592806  0.269214147108  
+ -0.000366389708382  -0.0208158134477  0.269214147108  
+ -0.00014295608413  -0.000366389708382  -0.0484268592806  0.267575583817  
+ 67200000000
+ 0.267956634654  
+ -0.0484958285772  0.269597522052  
+ -0.000366913559762  -0.020845461522  0.269597522052  
+ -0.000143164555097  -0.000366913559762  -0.0484958285772  0.267956634654  
+ 67300000000
+ 0.268337632962  
+ -0.0485647883753  0.269980844132  
+ -0.000367437342523  -0.0208751055172  0.269980844132  
+ -0.000143373005774  -0.000367437342523  -0.0485647883753  0.268337632962  
+ 67400000000
+ 0.268718578742  
+ -0.0486337386752  0.270364113347  
+ -0.000367961056662  -0.0209047454332  0.270364113347  
+ -0.000143581436152  -0.000367961056662  -0.0486337386752  0.268718578742  
+ 67500000000
+ 0.269099471996  
+ -0.048702679477  0.2707473297  
+ -0.000368484702178  -0.0209343812703  0.2707473297  
+ -0.000143789846222  -0.000368484702178  -0.048702679477  0.269099471996  
+ 67600000000
+ 0.269480312726  
+ -0.048771610781  0.271130493192  
+ -0.000369008279068  -0.0209640130284  0.271130493192  
+ -0.000143998235973  -0.000369008279068  -0.048771610781  0.269480312726  
+ 67700000000
+ 0.269861100932  
+ -0.0488405325874  0.271513603824  
+ -0.00036953178733  -0.0209936407078  0.271513603824  
+ -0.000144206605397  -0.00036953178733  -0.0488405325874  0.269861100932  
+ 67800000000
+ 0.270241836617  
+ -0.0489094448965  0.271896661598  
+ -0.000370055226961  -0.0210232643084  0.271896661598  
+ -0.000144414954485  -0.000370055226961  -0.0489094448965  0.270241836617  
+ 67900000000
+ 0.27062251978  
+ -0.0489783477085  0.272279666515  
+ -0.000370578597958  -0.0210528838304  0.272279666515  
+ -0.000144623283226  -0.000370578597958  -0.0489783477085  0.27062251978  
+ 68000000000
+ 0.271003150425  
+ -0.0490472410237  0.272662618577  
+ -0.00037110190032  -0.021082499274  0.272662618577  
+ -0.000144831591613  -0.00037110190032  -0.0490472410237  0.271003150425  
+ 68100000000
+ 0.271383728552  
+ -0.0491161248423  0.273045517784  
+ -0.000371625134044  -0.0211121106391  0.273045517784  
+ -0.000145039879634  -0.000371625134044  -0.0491161248423  0.271383728552  
+ 68200000000
+ 0.271764254163  
+ -0.0491849991645  0.273428364139  
+ -0.000372148299127  -0.0211417179258  0.273428364139  
+ -0.000145248147283  -0.000372148299127  -0.0491849991645  0.271764254163  
+ 68300000000
+ 0.272144727258  
+ -0.0492538639906  0.273811157643  
+ -0.000372671395568  -0.0211713211344  0.273811157643  
+ -0.000145456394548  -0.000372671395568  -0.0492538639906  0.272144727258  
+ 68400000000
+ 0.27252514784  
+ -0.0493227193208  0.274193898296  
+ -0.000373194423364  -0.0212009202649  0.274193898296  
+ -0.000145664621421  -0.000373194423364  -0.0493227193208  0.27252514784  
+ 68500000000
+ 0.27290551591  
+ -0.0493915651554  0.274576586102  
+ -0.000373717382513  -0.0212305153173  0.274576586102  
+ -0.000145872827894  -0.000373717382513  -0.0493915651554  0.27290551591  
+ 68600000000
+ 0.273285831469  
+ -0.0494604014945  0.27495922106  
+ -0.000374240273012  -0.0212601062918  0.27495922106  
+ -0.000146081013956  -0.000374240273012  -0.0494604014945  0.273285831469  
+ 68700000000
+ 0.273666094519  
+ -0.0495292283385  0.275341803172  
+ -0.00037476309486  -0.0212896931886  0.275341803172  
+ -0.000146289179599  -0.00037476309486  -0.0495292283385  0.273666094519  
+ 68800000000
+ 0.27404630506  
+ -0.0495980456876  0.275724332441  
+ -0.000375285848053  -0.0213192760075  0.275724332441  
+ -0.000146497324814  -0.000375285848054  -0.0495980456876  0.27404630506  
+ 68900000000
+ 0.274426463095  
+ -0.049666853542  0.276106808867  
+ -0.000375808532591  -0.0213488547489  0.276106808867  
+ -0.000146705449592  -0.000375808532591  -0.049666853542  0.274426463095  
+ 69000000000
+ 0.274806568625  
+ -0.049735651902  0.276489232451  
+ -0.00037633114847  -0.0213784294127  0.276489232451  
+ -0.000146913553924  -0.00037633114847  -0.049735651902  0.274806568625  
+ 69100000000
+ 0.275186621651  
+ -0.0498044407677  0.276871603196  
+ -0.000376853695689  -0.0214079999992  0.276871603196  
+ -0.0001471216378  -0.000376853695689  -0.0498044407677  0.275186621651  
+ 69200000000
+ 0.275566622174  
+ -0.0498732201396  0.277253921102  
+ -0.000377376174244  -0.0214375665083  0.277253921102  
+ -0.000147329701213  -0.000377376174244  -0.0498732201396  0.275566622174  
+ 69300000000
+ 0.275946570197  
+ -0.0499419900177  0.277636186172  
+ -0.000377898584135  -0.0214671289402  0.277636186172  
+ -0.000147537744153  -0.000377898584135  -0.0499419900177  0.275946570197  
+ 69400000000
+ 0.27632646572  
+ -0.0500107504024  0.278018398405  
+ -0.000378420925359  -0.0214966872949  0.278018398405  
+ -0.000147745766611  -0.000378420925359  -0.0500107504024  0.27632646572  
+ 69500000000
+ 0.276706308744  
+ -0.0500795012939  0.278400557805  
+ -0.000378943197913  -0.0215262415727  0.278400557805  
+ -0.000147953768579  -0.000378943197913  -0.0500795012939  0.276706308744  
+ 69600000000
+ 0.277086099272  
+ -0.0501482426924  0.278782664372  
+ -0.000379465401796  -0.0215557917735  0.278782664372  
+ -0.000148161750048  -0.000379465401796  -0.0501482426924  0.277086099272  
+ 69700000000
+ 0.277465837305  
+ -0.0502169745982  0.279164718107  
+ -0.000379987537006  -0.0215853378975  0.279164718107  
+ -0.000148369711008  -0.000379987537006  -0.0502169745982  0.277465837305  
+ 69800000000
+ 0.277845522843  
+ -0.0502856970115  0.279546719013  
+ -0.00038050960354  -0.0216148799448  0.279546719013  
+ -0.000148577651452  -0.00038050960354  -0.0502856970115  0.277845522843  
+ 69900000000
+ 0.278225155889  
+ -0.0503544099326  0.279928667091  
+ -0.000381031601396  -0.0216444179155  0.279928667091  
+ -0.000148785571371  -0.000381031601396  -0.0503544099326  0.278225155889  
+ 70000000000
+ 0.278604736444  
+ -0.0504231133617  0.280310562341  
+ -0.000381553530573  -0.0216739518097  0.280310562341  
+ -0.000148993470755  -0.000381553530573  -0.0504231133617  0.278604736444  

.ends


* Example Usage
* X1 in1 in2 in3 in4 inref out1 out2 out3 out4 outref ckt_m4lines_ADS_W Length=0.5


* End of File
